download/pglib-opf-master/pglib_opf_case2736sp_k.m
%%%%%%%%%%%%%%%%%%%%%%%%%%%%%%%%%%%%%%%%%%%%%%%%%%%%%%%%%%%%%%%%%%%%%%%%%%%
%%%%                                                                  %%%%%
%%%%    IEEE PES Power Grid Library - Optimal Power Flow - v19.05     %%%%%
%%%%          (https://github.com/power-grid-lib/pglib-opf)           %%%%%
%%%%               Benchmark Group - Typical Operations               %%%%%
%%%%                         08 - May - 2019                          %%%%%
%%%%                                                                  %%%%%
%%%%%%%%%%%%%%%%%%%%%%%%%%%%%%%%%%%%%%%%%%%%%%%%%%%%%%%%%%%%%%%%%%%%%%%%%%%
%
%   Power flow data for Polish system - summer 2004 peak.
%
%   This case represents the Polish 400, 220 and 110 kV networks during
%   summer 2004 peak conditions. Multiple centrally dispatchable
%   generators at a bus have not been aggregated. Generators that are
%   not centrally dispatchable in the Polish energy market are given a
%   cost of zero.
%
%   Copyright (c) 2010 by Roman Korab <roman.korab@polsl.pl>
%   Licensed under the Creative Commons Attribution 4.0
%   International license, http://creativecommons.org/licenses/by/4.0/
%
function mpc = pglib_opf_case2736sp_k
mpc.version = '2';
mpc.baseMVA = 100.0;

%% bus data
%	bus_i	type	Pd	Qd	Gs	Bs	area	Vm	Va	baseKV	zone	Vmax	Vmin
mpc.bus = [
	1	 1	 0.0	 0.0	 0.0	 0.0	 1	    1.03000	    0.00000	 220.0	 1	    1.11000	    0.95000;
	2	 1	 0.0	 0.0	 0.0	 0.0	 1	    1.03000	    0.00000	 220.0	 1	    1.11000	    0.95000;
	3	 1	 0.0	 0.0	 0.0	 0.0	 1	    1.03000	    0.00000	 220.0	 1	    1.11000	    0.95000;
	4	 1	 0.0	 0.0	 0.0	 0.0	 1	    1.03000	    0.00000	 220.0	 1	    1.11000	    0.95000;
	5	 1	 0.0	 0.0	 0.0	 0.0	 1	    1.03000	    0.00000	 220.0	 1	    1.11000	    0.95000;
	6	 1	 0.0	 0.0	 0.0	 0.0	 1	    1.03000	    0.00000	 220.0	 1	    1.11000	    0.95000;
	7	 1	 0.0	 0.0	 0.0	 0.0	 1	    1.03000	    0.00000	 220.0	 1	    1.11000	    0.95000;
	8	 1	 0.0	 0.0	 0.0	 0.0	 1	    1.00000	    0.00000	 400.0	 1	    1.05000	    0.95000;
	9	 1	 0.0	 0.0	 0.0	 0.0	 1	    1.00000	    0.00000	 400.0	 1	    1.05000	    0.95000;
	10	 1	 0.0	 0.0	 0.0	 0.0	 1	    1.03000	    0.00000	 220.0	 1	    1.11000	    0.95000;
	11	 1	 0.0	 0.0	 0.0	 0.0	 1	    1.03000	    0.00000	 220.0	 1	    1.11000	    0.95000;
	12	 1	 0.0	 0.0	 0.0	 0.0	 1	    1.03000	    0.00000	 220.0	 1	    1.11000	    0.95000;
	13	 1	 0.0	 0.0	 0.0	 0.0	 1	    1.03000	    0.00000	 220.0	 1	    1.11000	    0.95000;
	14	 1	 0.0	 0.0	 0.0	 0.0	 1	    1.00000	    0.00000	 400.0	 1	    1.05000	    0.95000;
	15	 1	 0.0	 0.0	 0.0	 0.0	 1	    1.00000	    0.00000	 400.0	 1	    1.05000	    0.95000;
	16	 1	 0.0	 0.0	 0.0	 0.0	 1	    1.00000	    0.00000	 400.0	 1	    1.05000	    0.95000;
	17	 2	 0.0	 0.0	 0.0	 0.0	 1	    1.03000	    0.00000	 220.0	 1	    1.11000	    0.95000;
	18	 1	 0.0	 0.0	 0.0	 0.0	 1	    1.03000	    0.00000	 220.0	 1	    1.11000	    0.95000;
	19	 1	 0.0	 0.0	 0.0	 0.0	 1	    1.03000	    0.00000	 220.0	 1	    1.11000	    0.95000;
	20	 1	 0.0	 0.0	 0.0	 0.0	 1	    1.03000	    0.00000	 220.0	 1	    1.11000	    0.95000;
	21	 1	 0.0	 0.0	 0.0	 0.0	 1	    1.03000	    0.00000	 220.0	 1	    1.11000	    0.95000;
	22	 1	 0.0	 0.0	 0.0	 0.0	 1	    1.03000	    0.00000	 220.0	 1	    1.11000	    0.95000;
	23	 1	 0.0	 0.0	 0.0	 0.0	 1	    1.03000	    0.00000	 220.0	 1	    1.11000	    0.95000;
	24	 1	 0.0	 0.0	 0.0	 0.0	 1	    1.03000	    0.00000	 220.0	 1	    1.11000	    0.95000;
	25	 1	 0.0	 0.0	 0.0	 0.0	 1	    1.00000	    0.00000	 400.0	 1	    1.05000	    0.95000;
	26	 2	 61.358	 72.054	 0.0	 0.0	 1	    1.03000	    0.00000	 220.0	 1	    1.11000	    0.95000;
	27	 2	 84.861	 122.06	 0.0	 0.0	 1	    1.03000	    0.00000	 220.0	 1	    1.11000	    0.95000;
	28	 3	 49.0	 74.0	 0.0	 0.0	 1	    1.00000	    0.00000	 400.0	 1	    1.05000	    0.95000;
	29	 2	 49.0	 74.0	 0.0	 0.0	 1	    1.00000	    0.00000	 400.0	 1	    1.05000	    0.95000;
	30	 1	 0.0	 0.0	 0.0	 0.0	 1	    1.03000	    0.00000	 220.0	 1	    1.11000	    0.95000;
	31	 1	 0.0	 0.0	 0.0	 0.0	 1	    1.00000	    0.00000	 400.0	 1	    1.05000	    0.95000;
	32	 1	 0.0	 0.0	 0.0	 0.0	 1	    1.03000	    0.00000	 220.0	 1	    1.11000	    0.95000;
	33	 1	 0.0	 0.0	 0.0	 0.0	 1	    1.03000	    0.00000	 220.0	 1	    1.11000	    0.95000;
	34	 1	 0.0	 0.0	 0.0	 0.0	 1	    1.03000	    0.00000	 220.0	 2	    1.11000	    0.95000;
	35	 1	 0.0	 0.0	 0.0	 0.0	 1	    1.03000	    0.00000	 220.0	 2	    1.11000	    0.95000;
	36	 1	 0.0	 0.0	 0.0	 0.0	 1	    1.03000	    0.00000	 220.0	 2	    1.11000	    0.95000;
	37	 1	 0.0	 0.0	 0.0	 0.0	 1	    1.03000	    0.00000	 220.0	 2	    1.11000	    0.95000;
	38	 1	 0.0	 0.0	 0.0	 0.0	 1	    1.03000	    0.00000	 220.0	 2	    1.11000	    0.95000;
	39	 1	 0.0	 0.0	 0.0	 0.0	 1	    1.03000	    0.00000	 220.0	 2	    1.11000	    0.95000;
	40	 1	 0.0	 0.0	 0.0	 0.0	 1	    1.03000	    0.00000	 220.0	 2	    1.11000	    0.95000;
	41	 1	 0.0	 0.0	 0.0	 0.0	 1	    1.00000	    0.00000	 400.0	 2	    1.05000	    0.95000;
	42	 2	 25.0	 0.0	 0.0	 0.0	 1	    1.03000	    0.00000	 220.0	 2	    1.11000	    0.95000;
	43	 2	 26.0	 0.0	 0.0	 0.0	 1	    1.03000	    0.00000	 220.0	 2	    1.11000	    0.95000;
	44	 2	 25.0	 0.0	 0.0	 0.0	 1	    1.00000	    0.00000	 400.0	 2	    1.05000	    0.95000;
	45	 1	 0.0	 0.0	 0.0	 0.0	 1	    1.00000	    0.00000	 400.0	 2	    1.05000	    0.95000;
	46	 1	 0.0	 0.0	 0.0	 0.0	 1	    1.03000	    0.00000	 220.0	 2	    1.11000	    0.95000;
	47	 1	 0.0	 0.0	 0.0	 0.0	 1	    1.00000	    0.00000	 400.0	 2	    1.05000	    0.95000;
	48	 1	 0.0	 0.0	 0.0	 0.0	 1	    1.00000	    0.00000	 400.0	 2	    1.05000	    0.95000;
	49	 1	 0.0	 0.0	 0.0	 0.0	 1	    1.00000	    0.00000	 400.0	 2	    1.05000	    0.95000;
	50	 1	 0.0	 0.0	 0.0	 0.0	 1	    1.03000	    0.00000	 220.0	 2	    1.11000	    0.95000;
	51	 1	 0.0	 0.0	 0.0	 0.0	 1	    1.03000	    0.00000	 220.0	 2	    1.11000	    0.95000;
	52	 1	 0.0	 0.0	 0.0	 0.0	 1	    1.00000	    0.00000	 400.0	 2	    1.05000	    0.95000;
	53	 1	 0.0	 0.0	 0.0	 0.0	 1	    1.00000	    0.00000	 400.0	 2	    1.05000	    0.95000;
	54	 2	 13.0	 0.0	 0.0	 0.0	 1	    1.03000	    0.00000	 220.0	 2	    1.11000	    0.95000;
	55	 2	 13.0	 0.0	 0.0	 0.0	 1	    1.03000	    0.00000	 220.0	 2	    1.11000	    0.95000;
	56	 2	 13.0	 0.0	 0.0	 0.0	 1	    1.00000	    0.00000	 400.0	 2	    1.05000	    0.95000;
	57	 2	 26.0	 0.0	 0.0	 0.0	 1	    1.00000	    0.00000	 400.0	 2	    1.05000	    0.95000;
	58	 2	 89.067	 40.0	 0.0	 0.0	 1	    1.03000	    0.00000	 220.0	 2	    1.11000	    0.95000;
	59	 1	 0.0	 0.0	 0.0	 0.0	 1	    1.03000	    0.00000	 220.0	 2	    1.11000	    0.95000;
	60	 1	 0.0	 0.0	 0.0	 0.0	 1	    1.03000	    0.00000	 220.0	 2	    1.11000	    0.95000;
	61	 1	 0.0	 0.0	 0.0	 0.0	 1	    1.03000	    0.00000	 220.0	 2	    1.11000	    0.95000;
	62	 1	 0.0	 0.0	 0.0	 0.0	 1	    1.03000	    0.00000	 220.0	 2	    1.11000	    0.95000;
	63	 1	 0.0	 0.0	 0.0	 0.0	 1	    1.00000	    0.00000	 400.0	 2	    1.05000	    0.95000;
	64	 1	 0.0	 0.0	 0.0	 0.0	 1	    1.00000	    0.00000	 400.0	 2	    1.05000	    0.95000;
	65	 1	 0.0	 0.0	 0.0	 0.0	 1	    1.03000	    0.00000	 220.0	 2	    1.11000	    0.95000;
	66	 1	 0.0	 0.0	 0.0	 0.0	 1	    1.03000	    0.00000	 220.0	 2	    1.11000	    0.95000;
	67	 1	 0.0	 0.0	 0.0	 0.0	 1	    1.03000	    0.00000	 220.0	 2	    1.11000	    0.95000;
	68	 1	 0.0	 0.0	 0.0	 0.0	 1	    1.03000	    0.00000	 220.0	 3	    1.11000	    0.95000;
	69	 1	 10.327	 0.0	 0.0	 0.0	 1	    1.03000	    0.00000	 220.0	 3	    1.11000	    0.95000;
	70	 1	 8.032	 3.714	 0.0	 0.0	 1	    1.03000	    0.00000	 220.0	 3	    1.11000	    0.95000;
	71	 1	 0.0	 0.0	 0.0	 0.0	 1	    1.03000	    0.00000	 220.0	 3	    1.11000	    0.95000;
	72	 1	 0.0	 0.0	 0.0	 0.0	 1	    1.03000	    0.00000	 220.0	 3	    1.11000	    0.95000;
	73	 1	 0.0	 0.0	 0.0	 0.0	 1	    1.03000	    0.00000	 220.0	 3	    1.11000	    0.95000;
	74	 1	 0.0	 0.0	 0.0	 0.0	 1	    1.03000	    0.00000	 220.0	 3	    1.11000	    0.95000;
	75	 1	 0.0	 0.0	 0.0	 0.0	 1	    1.03000	    0.00000	 220.0	 3	    1.11000	    0.95000;
	76	 1	 0.0	 0.0	 0.0	 0.0	 1	    1.03000	    0.00000	 220.0	 3	    1.11000	    0.95000;
	77	 2	 27.0	 70.0	 0.0	 0.0	 1	    1.03000	    0.00000	 220.0	 3	    1.11000	    0.95000;
	78	 2	 18.7	 42.0	 0.0	 0.0	 1	    1.03000	    0.00000	 220.0	 3	    1.11000	    0.95000;
	79	 1	 4.934	 0.817	 0.0	 0.0	 1	    1.03000	    0.00000	 220.0	 3	    1.11000	    0.95000;
	80	 1	 0.0	 0.0	 0.0	 0.0	 1	    1.03000	    0.00000	 220.0	 3	    1.11000	    0.95000;
	81	 2	 18.0	 57.0	 0.0	 0.0	 1	    1.00000	    0.00000	 400.0	 3	    1.05000	    0.95000;
	82	 1	 0.0	 0.0	 0.0	 0.0	 1	    1.03000	    0.00000	 220.0	 3	    1.11000	    0.95000;
	83	 1	 0.0	 0.0	 0.0	 0.0	 1	    1.03000	    0.00000	 220.0	 3	    1.11000	    0.95000;
	84	 1	 0.0	 0.0	 0.0	 0.0	 1	    1.03000	    0.00000	 220.0	 3	    1.11000	    0.95000;
	85	 1	 44.864	 -6.4	 0.0	 0.0	 1	    1.03000	    0.00000	 220.0	 3	    1.11000	    0.95000;
	86	 1	 0.0	 0.0	 0.0	 0.0	 1	    1.03000	    0.00000	 220.0	 3	    1.11000	    0.95000;
	87	 1	 0.0	 0.0	 0.0	 0.0	 1	    1.03000	    0.00000	 220.0	 3	    1.11000	    0.95000;
	88	 1	 0.0	 0.0	 0.0	 0.0	 1	    1.03000	    0.00000	 220.0	 3	    1.11000	    0.95000;
	89	 1	 0.0	 0.0	 0.0	 0.0	 1	    1.03000	    0.00000	 220.0	 3	    1.11000	    0.95000;
	90	 1	 0.0	 0.0	 0.0	 0.0	 1	    1.03000	    0.00000	 220.0	 3	    1.11000	    0.95000;
	91	 1	 0.0	 0.0	 0.0	 0.0	 1	    1.00000	    0.00000	 400.0	 3	    1.05000	    0.95000;
	92	 1	 0.0	 0.0	 0.0	 0.0	 1	    1.00000	    0.00000	 400.0	 3	    1.05000	    0.95000;
	93	 1	 0.0	 0.0	 0.0	 0.0	 1	    1.03000	    0.00000	 220.0	 3	    1.11000	    0.95000;
	94	 1	 0.0	 0.0	 0.0	 0.0	 1	    1.03000	    0.00000	 220.0	 3	    1.11000	    0.95000;
	95	 1	 0.0	 0.0	 0.0	 0.0	 1	    1.03000	    0.00000	 220.0	 3	    1.11000	    0.95000;
	96	 1	 0.0	 0.0	 0.0	 0.0	 1	    1.03000	    0.00000	 220.0	 3	    1.11000	    0.95000;
	97	 2	 12.49	 3.696	 0.0	 0.0	 1	    1.03000	    0.00000	 220.0	 3	    1.11000	    0.95000;
	98	 1	 17.327	 6.126	 0.0	 0.0	 1	    1.03000	    0.00000	 220.0	 3	    1.11000	    0.95000;
	99	 1	 0.0	 0.0	 0.0	 0.0	 1	    1.03000	    0.00000	 220.0	 3	    1.11000	    0.95000;
	100	 1	 0.0	 0.0	 0.0	 0.0	 1	    1.03000	    0.00000	 220.0	 3	    1.11000	    0.95000;
	101	 1	 0.0	 0.0	 0.0	 0.0	 1	    1.03000	    0.00000	 220.0	 3	    1.11000	    0.95000;
	102	 1	 0.0	 0.0	 0.0	 0.0	 1	    1.03000	    0.00000	 220.0	 3	    1.11000	    0.95000;
	103	 2	 14.0	 40.0	 0.0	 0.0	 1	    1.03000	    0.00000	 220.0	 3	    1.11000	    0.95000;
	104	 2	 0.0	 0.0	 0.0	 0.0	 1	    1.03000	    0.00000	 220.0	 3	    1.11000	    0.95000;
	105	 2	 7.0	 18.0	 0.0	 0.0	 1	    1.03000	    0.00000	 220.0	 3	    1.11000	    0.95000;
	106	 2	 0.0	 0.0	 0.0	 0.0	 1	    1.03000	    0.00000	 220.0	 3	    1.11000	    0.95000;
	107	 1	 0.0	 13.892	 0.0	 0.0	 1	    1.03000	    0.00000	 220.0	 3	    1.11000	    0.95000;
	108	 1	 73.779	 8.097	 0.0	 0.0	 1	    1.03000	    0.00000	 220.0	 3	    1.11000	    0.95000;
	109	 1	 0.0	 0.0	 0.0	 0.0	 1	    1.03000	    0.00000	 220.0	 3	    1.11000	    0.95000;
	110	 1	 0.0	 0.0	 0.0	 0.0	 1	    1.03000	    0.00000	 220.0	 3	    1.11000	    0.95000;
	111	 1	 0.0	 0.0	 0.0	 0.0	 1	    1.03000	    0.00000	 220.0	 3	    1.11000	    0.95000;
	112	 1	 0.0	 0.0	 0.0	 0.0	 1	    1.03000	    0.00000	 220.0	 3	    1.11000	    0.95000;
	113	 1	 0.0	 0.0	 0.0	 0.0	 1	    1.03000	    0.00000	 220.0	 3	    1.11000	    0.95000;
	114	 1	 0.0	 0.0	 0.0	 0.0	 1	    1.00000	    0.00000	 400.0	 3	    1.05000	    0.95000;
	115	 2	 0.0	 0.0	 0.0	 0.0	 1	    1.03000	    0.00000	 220.0	 3	    1.11000	    0.95000;
	116	 2	 8.0	 15.0	 0.0	 0.0	 1	    1.03000	    0.00000	 220.0	 3	    1.11000	    0.95000;
	117	 2	 5.5	 10.0	 0.0	 0.0	 1	    1.03000	    0.00000	 220.0	 3	    1.11000	    0.95000;
	118	 1	 0.0	 0.0	 0.0	 0.0	 1	    1.03000	    0.00000	 220.0	 3	    1.11000	    0.95000;
	119	 1	 0.0	 0.0	 0.0	 0.0	 1	    1.00000	    0.00000	 400.0	 3	    1.05000	    0.95000;
	120	 1	 0.0	 0.0	 0.0	 0.0	 1	    1.00000	    0.00000	 400.0	 3	    1.05000	    0.95000;
	121	 1	 0.0	 0.0	 0.0	 0.0	 1	    1.00000	    0.00000	 400.0	 3	    1.05000	    0.95000;
	122	 1	 0.0	 0.0	 0.0	 0.0	 1	    1.00000	    0.00000	 400.0	 3	    1.05000	    0.95000;
	123	 1	 0.0	 0.0	 0.0	 0.0	 1	    1.03000	    0.00000	 220.0	 3	    1.11000	    0.95000;
	124	 2	 11.0	 17.5	 0.0	 0.0	 1	    1.03000	    0.00000	 220.0	 3	    1.11000	    0.95000;
	125	 2	 41.353	 61.2	 0.0	 0.0	 1	    1.03000	    0.00000	 220.0	 3	    1.11000	    0.95000;
	126	 2	 14.0	 33.0	 0.0	 0.0	 1	    1.00000	    0.00000	 400.0	 3	    1.05000	    0.95000;
	127	 1	 0.0	 0.0	 0.0	 0.0	 1	    1.00000	    0.00000	 400.0	 3	    1.05000	    0.95000;
	128	 1	 0.0	 0.0	 0.0	 0.0	 1	    1.03000	    0.00000	 220.0	 3	    1.11000	    0.95000;
	129	 1	 0.0	 0.0	 0.0	 0.0	 1	    1.03000	    0.00000	 220.0	 3	    1.11000	    0.95000;
	130	 1	 0.0	 0.0	 0.0	 0.0	 1	    1.03000	    0.00000	 220.0	 3	    1.11000	    0.95000;
	131	 2	 1.5	 9.0	 0.0	 0.0	 1	    1.03000	    0.00000	 220.0	 3	    1.11000	    0.95000;
	132	 2	 0.0	 0.0	 0.0	 0.0	 1	    1.03000	    0.00000	 220.0	 3	    1.11000	    0.95000;
	133	 2	 11.215	 8.3	 0.0	 0.0	 1	    1.03000	    0.00000	 220.0	 4	    1.11000	    0.95000;
	134	 2	 10.333	 7.7	 0.0	 0.0	 1	    1.03000	    0.00000	 220.0	 4	    1.11000	    0.95000;
	135	 1	 0.0	 0.0	 0.0	 0.0	 1	    1.03000	    0.00000	 220.0	 4	    1.11000	    0.95000;
	136	 1	 0.0	 0.0	 0.0	 0.0	 1	    1.03000	    0.00000	 220.0	 4	    1.11000	    0.95000;
	137	 1	 0.0	 0.0	 0.0	 0.0	 1	    1.00000	    0.00000	 400.0	 4	    1.05000	    0.95000;
	138	 1	 0.0	 0.0	 0.0	 0.0	 1	    1.00000	    0.00000	 400.0	 4	    1.05000	    0.95000;
	139	 1	 0.0	 0.0	 0.0	 0.0	 1	    1.03000	    0.00000	 220.0	 4	    1.11000	    0.95000;
	140	 1	 0.0	 0.0	 0.0	 0.0	 1	    1.03000	    0.00000	 220.0	 4	    1.11000	    0.95000;
	141	 1	 0.0	 0.0	 0.0	 0.0	 1	    1.03000	    0.00000	 220.0	 4	    1.11000	    0.95000;
	142	 1	 0.0	 0.0	 0.0	 0.0	 1	    1.03000	    0.00000	 220.0	 4	    1.11000	    0.95000;
	143	 1	 0.0	 0.0	 0.0	 0.0	 1	    1.03000	    0.00000	 220.0	 4	    1.11000	    0.95000;
	144	 1	 0.0	 0.0	 0.0	 0.0	 1	    1.03000	    0.00000	 220.0	 4	    1.11000	    0.95000;
	145	 2	 0.0	 0.0	 0.0	 0.0	 1	    1.03000	    0.00000	 220.0	 4	    1.11000	    0.95000;
	146	 2	 0.0	 0.0	 0.0	 0.0	 1	    1.03000	    0.00000	 220.0	 4	    1.11000	    0.95000;
	147	 2	 25.553	 12.9	 0.0	 0.0	 1	    1.03000	    0.00000	 220.0	 4	    1.11000	    0.95000;
	148	 1	 0.0	 0.0	 0.0	 0.0	 1	    1.03000	    0.00000	 220.0	 4	    1.11000	    0.95000;
	149	 2	 11.0	 12.0	 0.0	 0.0	 1	    1.00000	    0.00000	 400.0	 4	    1.05000	    0.95000;
	150	 2	 11.922	 13.7	 0.0	 0.0	 1	    1.00000	    0.00000	 400.0	 4	    1.05000	    0.95000;
	151	 1	 0.0	 0.0	 0.0	 0.0	 1	    1.03000	    0.00000	 220.0	 4	    1.11000	    0.95000;
	152	 1	 0.0	 0.0	 0.0	 0.0	 1	    1.03000	    0.00000	 220.0	 4	    1.11000	    0.95000;
	153	 1	 0.0	 0.0	 0.0	 0.0	 1	    1.03000	    0.00000	 220.0	 4	    1.11000	    0.95000;
	154	 2	 19.475	 64.3	 0.0	 0.0	 1	    1.03000	    0.00000	 220.0	 4	    1.11000	    0.95000;
	155	 2	 16.0	 33.0	 0.0	 0.0	 1	    1.03000	    0.00000	 220.0	 4	    1.11000	    0.95000;
	156	 1	 0.0	 0.0	 0.0	 0.0	 1	    1.00000	    0.00000	 400.0	 4	    1.05000	    0.95000;
	157	 2	 10.0	 25.0	 0.0	 0.0	 1	    1.00000	    0.00000	 400.0	 4	    1.05000	    0.95000;
	158	 1	 0.0	 0.0	 0.0	 0.0	 1	    1.03000	    0.00000	 220.0	 4	    1.11000	    0.95000;
	159	 1	 0.0	 0.0	 0.0	 0.0	 1	    1.03000	    0.00000	 220.0	 4	    1.11000	    0.95000;
	160	 1	 0.0	 0.0	 0.0	 0.0	 1	    1.00000	    0.00000	 400.0	 4	    1.05000	    0.95000;
	161	 1	 0.0	 0.0	 0.0	 0.0	 1	    1.00000	    0.00000	 400.0	 4	    1.05000	    0.95000;
	162	 1	 0.0	 0.0	 0.0	 0.0	 1	    1.00000	    0.00000	 400.0	 4	    1.05000	    0.95000;
	163	 2	 5.54	 2.93	 0.0	 0.0	 1	    1.03000	    0.00000	 220.0	 4	    1.11000	    0.95000;
	164	 2	 18.255	 11.5	 0.0	 0.0	 1	    1.03000	    0.00000	 220.0	 4	    1.11000	    0.95000;
	165	 1	 0.0	 0.0	 0.0	 0.0	 1	    1.03000	    0.00000	 220.0	 4	    1.11000	    0.95000;
	166	 1	 0.0	 0.0	 0.0	 0.0	 1	    1.03000	    0.00000	 220.0	 4	    1.11000	    0.95000;
	167	 1	 0.0	 0.0	 0.0	 0.0	 1	    1.03000	    0.00000	 220.0	 4	    1.11000	    0.95000;
	168	 1	 0.0	 0.0	 0.0	 0.0	 1	    1.03000	    0.00000	 220.0	 4	    1.11000	    0.95000;
	169	 1	 0.0	 0.0	 0.0	 0.0	 1	    1.03000	    0.00000	 220.0	 4	    1.11000	    0.95000;
	170	 1	 0.0	 0.0	 0.0	 0.0	 1	    1.00000	    0.00000	 400.0	 4	    1.05000	    0.95000;
	171	 1	 0.0	 0.0	 0.0	 0.0	 1	    1.00000	    0.00000	 400.0	 4	    1.05000	    0.95000;
	172	 1	 0.0	 0.0	 0.0	 0.0	 1	    1.03000	    0.00000	 220.0	 4	    1.11000	    0.95000;
	173	 1	 0.0	 0.0	 0.0	 0.0	 1	    1.03000	    0.00000	 220.0	 4	    1.11000	    0.95000;
	174	 1	 0.0	 0.0	 0.0	 0.0	 1	    1.03000	    0.00000	 220.0	 4	    1.11000	    0.95000;
	175	 1	 0.0	 0.0	 0.0	 0.0	 1	    1.03000	    0.00000	 220.0	 4	    1.11000	    0.95000;
	176	 1	 0.0	 0.0	 0.0	 0.0	 1	    1.03000	    0.00000	 220.0	 4	    1.11000	    0.95000;
	177	 1	 0.0	 0.0	 0.0	 0.0	 1	    1.03000	    0.00000	 220.0	 4	    1.11000	    0.95000;
	178	 1	 0.0	 0.0	 0.0	 0.0	 1	    1.03000	    0.00000	 220.0	 4	    1.11000	    0.95000;
	179	 2	 3.13	 1.5	 0.0	 0.0	 1	    1.03000	    0.00000	 220.0	 4	    1.11000	    0.95000;
	180	 1	 0.0	 0.0	 0.0	 0.0	 1	    1.03000	    0.00000	 220.0	 4	    1.11000	    0.95000;
	181	 1	 0.0	 0.0	 0.0	 0.0	 1	    1.03000	    0.00000	 220.0	 5	    1.11000	    0.95000;
	182	 1	 0.0	 0.0	 0.0	 0.0	 1	    1.03000	    0.00000	 220.0	 5	    1.11000	    0.95000;
	183	 1	 0.0	 0.0	 0.0	 0.0	 1	    1.00000	    0.00000	 400.0	 5	    1.05000	    0.95000;
	184	 1	 0.0	 0.0	 0.0	 0.0	 1	    1.00000	    0.00000	 400.0	 5	    1.05000	    0.95000;
	185	 1	 0.0	 0.0	 0.0	 0.0	 1	    1.00000	    0.00000	 400.0	 5	    1.05000	    0.95000;
	186	 1	 0.0	 0.0	 0.0	 0.0	 1	    1.00000	    0.00000	 400.0	 5	    1.05000	    0.95000;
	187	 1	 0.0	 0.0	 0.0	 0.0	 1	    1.03000	    0.00000	 220.0	 5	    1.11000	    0.95000;
	188	 1	 0.0	 0.0	 0.0	 0.0	 1	    1.03000	    0.00000	 220.0	 5	    1.11000	    0.95000;
	189	 1	 0.0	 0.0	 0.0	 0.0	 1	    1.03000	    0.00000	 220.0	 5	    1.11000	    0.95000;
	190	 1	 0.0	 0.0	 0.0	 0.0	 1	    1.03000	    0.00000	 220.0	 5	    1.11000	    0.95000;
	191	 1	 0.0	 0.0	 0.0	 0.0	 1	    1.00000	    0.00000	 400.0	 5	    1.05000	    0.95000;
	192	 1	 0.0	 0.0	 0.0	 0.0	 1	    1.03000	    0.00000	 220.0	 5	    1.11000	    0.95000;
	193	 1	 0.0	 0.0	 0.0	 0.0	 1	    1.03000	    0.00000	 220.0	 5	    1.11000	    0.95000;
	194	 1	 0.0	 0.0	 0.0	 0.0	 1	    1.00000	    0.00000	 400.0	 5	    1.05000	    0.95000;
	195	 1	 0.0	 0.0	 0.0	 0.0	 1	    1.00000	    0.00000	 400.0	 5	    1.05000	    0.95000;
	196	 1	 0.0	 0.0	 0.0	 0.0	 1	    1.03000	    0.00000	 220.0	 5	    1.11000	    0.95000;
	197	 1	 0.0	 0.0	 0.0	 0.0	 1	    1.03000	    0.00000	 220.0	 5	    1.11000	    0.95000;
	198	 1	 0.0	 0.0	 0.0	 -117.0	 1	    1.00000	    0.00000	 400.0	 5	    1.05000	    0.95000;
	199	 1	 0.0	 0.0	 0.0	 0.0	 1	    1.00000	    0.00000	 400.0	 5	    1.05000	    0.95000;
	200	 1	 0.0	 0.0	 0.0	 0.0	 1	    1.03000	    0.00000	 220.0	 5	    1.11000	    0.95000;
...
];

%% generator data
%	bus	Pg	Qg	Qmax	Qmin	Vg	mBase	status	Pmax	Pmin
mpc.gen = [
	17	 0.0	 0.0	 120.0	 -22.0	 1.03	 241.9	 0	 210.0	 140.0;
	17	 0.0	 0.0	 120.0	 -22.0	 1.03	 233.2	 0	 200.0	 140.0;
	26	 330.0	 85.5	 190.0	 -19.0	 1.03	 415.9	 1	 370.0	 290.0;
	27	 325.0	 85.5	 190.0	 -19.0	 1.03	 407.1	 1	 360.0	 290.0;
	27	 325.0	 85.5	 190.0	 -19.0	 1.03	 407.1	 1	 360.0	 290.0;
	27	 330.0	 85.5	 190.0	 -19.0	 1.03	 415.9	 1	 370.0	 290.0;
	26	 330.0	 85.5	 190.0	 -19.0	 1.03	 415.9	 1	 370.0	 290.0;
	28	 330.0	 85.5	 190.0	 -19.0	 1.0	 415.9	 1	 370.0	 290.0;
	28	 0.0	 0.0	 190.0	 -19.0	 1.0	 415.9	 0	 370.0	 290.0;
	28	 330.0	 85.5	 190.0	 -19.0	 1.0	 415.9	 1	 370.0	 290.0;
	29	 0.0	 0.0	 190.0	 -19.0	 1.0	 415.9	 0	 370.0	 290.0;
	29	 330.0	 85.5	 190.0	 -19.0	 1.0	 415.9	 1	 370.0	 290.0;
	29	 330.0	 85.5	 190.0	 -19.0	 1.0	 415.9	 1	 370.0	 290.0;
	42	 172.5	 50.5	 135.0	 -34.0	 1.03	 253.9	 1	 215.0	 130.0;
	42	 0.0	 0.0	 130.0	 -34.0	 1.03	 242.7	 0	 205.0	 135.0;
	42	 167.5	 55.5	 145.0	 -34.0	 1.03	 267.7	 1	 225.0	 110.0;
	43	 172.5	 55.5	 145.0	 -34.0	 1.03	 267.7	 1	 225.0	 120.0;
	43	 177.5	 55.5	 145.0	 -34.0	 1.03	 267.7	 1	 225.0	 130.0;
	43	 0.0	 0.0	 130.0	 -34.0	 1.03	 242.7	 0	 205.0	 135.0;
	44	 395.0	 158.0	 363.0	 -47.0	 1.0	 646.5	 1	 535.0	 255.0;
	44	 0.0	 0.0	 348.0	 -100.0	 1.0	 659.3	 0	 560.0	 250.0;
	54	 177.0	 51.5	 104.0	 -1.0	 1.03	 247.9	 1	 225.0	 129.0;
	55	 177.0	 57.0	 130.0	 -16.0	 1.03	 259.9	 1	 225.0	 129.0;
	54	 0.0	 0.0	 130.0	 -16.0	 1.03	 259.9	 0	 225.0	 129.0;
	56	 177.0	 57.0	 130.0	 -16.0	 1.0	 259.9	 1	 225.0	 129.0;
	57	 177.0	 57.0	 130.0	 -16.0	 1.0	 259.9	 1	 225.0	 129.0;
	57	 0.0	 0.0	 104.0	 -1.0	 1.0	 247.9	 0	 225.0	 129.0;
	57	 177.0	 57.0	 130.0	 -16.0	 1.0	 259.9	 1	 225.0	 129.0;
	58	 48.1	 15.0	 30.0	 0.0	 1.03	 66.5	 1	 48.1	 48.1;
	77	 182.5	 54.0	 123.0	 -15.0	 1.03	 256.4	 1	 225.0	 140.0;
	77	 182.5	 54.0	 123.0	 -15.0	 1.03	 256.4	 1	 225.0	 140.0;
	78	 0.0	 0.0	 123.0	 -15.0	 1.03	 252.0	 0	 220.0	 140.0;
	78	 182.5	 54.0	 123.0	 -15.0	 1.03	 256.4	 1	 225.0	 140.0;
	78	 182.5	 54.0	 123.0	 -15.0	 1.03	 256.4	 1	 225.0	 140.0;
	81	 300.0	 100.5	 232.0	 -31.0	 1.0	 445.2	 1	 380.0	 220.0;
	81	 0.0	 0.0	 228.0	 -30.0	 1.0	 434.6	 0	 370.0	 220.0;
	97	 9.0	 0.5	 1.0	 0.0	 1.03	 12.0	 1	 9.0	 9.0;
	97	 6.0	 0.5	 1.0	 0.0	 1.03	 6.1	 1	 6.0	 6.0;
	103	 179.5	 54.0	 123.0	 -15.0	 1.03	 256.4	 1	 225.0	 134.0;
	104	 0.0	 0.0	 123.0	 -15.0	 1.03	 256.4	 0	 225.0	 134.0;
	105	 99.5	 39.0	 80.0	 -2.0	 1.03	 144.2	 1	 120.0	 79.0;
	106	 0.0	 0.0	 80.0	 -2.0	 1.03	 144.2	 0	 120.0	 79.0;
	115	 0.0	 0.0	 90.0	 -20.0	 1.03	 150.0	 0	 120.0	 90.0;
	116	 95.0	 40.0	 82.0	 -2.0	 1.03	 145.3	 1	 120.0	 70.0;
	117	 95.0	 20.0	 40.0	 0.0	 1.03	 117.0	 1	 110.0	 80.0;
	124	 187.5	 50.0	 135.0	 -35.0	 1.03	 253.9	 1	 215.0	 160.0;
	125	 182.5	 52.5	 140.0	 -35.0	 1.03	 265.0	 1	 225.0	 140.0;
	125	 187.5	 50.0	 135.0	 -35.0	 1.03	 253.9	 1	 215.0	 160.0;
	126	 182.5	 50.0	 140.0	 -40.0	 1.0	 265.0	 1	 225.0	 140.0;
	126	 0.0	 0.0	 137.0	 -40.0	 1.0	 259.2	 0	 220.0	 160.0;
	131	 62.5	 1.0	 40.0	 -38.0	 1.03	 131.2	 1	 125.0	 0.0;
	131	 0.0	 0.0	 40.0	 -38.0	 1.03	 131.2	 0	 125.0	 0.0;
	132	 0.0	 0.0	 40.0	 -38.0	 1.03	 131.2	 0	 125.0	 0.0;
	132	 0.0	 0.0	 40.0	 -38.0	 1.03	 131.2	 0	 125.0	 0.0;
	133	 0.0	 0.0	 90.0	 0.0	 1.03	 150.0	 0	 120.0	 100.0;
	133	 110.0	 45.0	 90.0	 0.0	 1.03	 150.0	 1	 120.0	 100.0;
	134	 110.0	 45.0	 90.0	 0.0	 1.03	 150.0	 1	 120.0	 100.0;
	145	 0.0	 0.0	 12.0	 0.0	 1.03	 51.4	 0	 50.0	 30.0;
	145	 0.0	 0.0	 12.0	 0.0	 1.03	 51.4	 0	 50.0	 30.0;
	146	 0.0	 0.0	 90.0	 0.0	 1.03	 150.0	 0	 120.0	 90.0;
	147	 0.0	 0.0	 149.0	 -48.0	 1.03	 267.4	 0	 222.0	 90.0;
	147	 0.0	 0.0	 149.0	 -48.0	 1.03	 253.4	 0	 205.0	 135.0;
	147	 0.0	 0.0	 149.0	 -48.0	 1.03	 253.4	 0	 205.0	 135.0;
	147	 156.0	 50.5	 149.0	 -48.0	 1.03	 267.4	 1	 222.0	 90.0;
	149	 156.0	 50.0	 123.0	 -23.0	 1.0	 253.8	 1	 222.0	 90.0;
	150	 156.0	 50.5	 149.0	 -48.0	 1.0	 267.4	 1	 222.0	 90.0;
	150	 0.0	 0.0	 123.0	 -23.0	 1.0	 253.8	 0	 222.0	 90.0;
	154	 164.5	 48.0	 149.0	 -53.0	 1.03	 278.3	 1	 235.0	 94.0;
	154	 0.0	 0.0	 149.0	 -53.0	 1.03	 278.3	 0	 235.0	 94.0;
	154	 182.5	 60.0	 120.0	 0.0	 1.03	 287.3	 1	 261.0	 104.0;
	154	 0.0	 0.0	 132.0	 -40.0	 1.03	 292.5	 0	 261.0	 104.0;
	155	 0.0	 0.0	 120.0	 0.0	 1.03	 287.3	 0	 261.0	 104.0;
	155	 167.5	 47.5	 117.0	 -22.0	 1.03	 236.0	 1	 205.0	 130.0;
	155	 163.0	 44.5	 109.0	 -20.0	 1.03	 233.1	 1	 206.0	 120.0;
	155	 0.0	 0.0	 109.0	 -20.0	 1.03	 233.1	 0	 206.0	 120.0;
	157	 163.0	 44.5	 109.0	 -20.0	 1.0	 233.1	 1	 206.0	 120.0;
	163	 0.0	 0.0	 104.0	 -23.0	 1.03	 225.4	 0	 200.0	 150.0;
	163	 175.0	 40.5	 104.0	 -23.0	 1.03	 225.4	 1	 200.0	 150.0;
	164	 175.0	 40.5	 104.0	 -23.0	 1.03	 225.4	 1	 200.0	 150.0;
	164	 175.0	 40.5	 104.0	 -23.0	 1.03	 225.4	 1	 200.0	 150.0;
	179	 170.0	 55.0	 110.0	 0.0	 1.03	 219.5	 1	 170.0	 170.0;
	204	 89.5	 25.0	 110.0	 -60.0	 1.0	 210.1	 1	 179.0	 0.0;
	204	 89.5	 25.0	 110.0	 -60.0	 1.0	 210.1	 1	 179.0	 0.0;
	204	 89.5	 25.0	 110.0	 -60.0	 1.0	 210.1	 1	 179.0	 0.0;
	205	 89.5	 25.0	 110.0	 -60.0	 1.0	 210.1	 1	 179.0	 0.0;
	214	 35.0	 10.0	 20.0	 0.0	 1.035	 58.5	 1	 35.0	 35.0;
	214	 0.0	 0.0	 20.0	 0.0	 1.035	 53.9	 0	 0.0	 0.0;
	214	 0.0	 0.0	 20.0	 0.0	 1.035	 53.9	 0	 0.0	 0.0;
	214	 10.0	 10.0	 20.0	 0.0	 1.035	 30.5	 1	 10.0	 10.0;
	220	 1.55	 0.5	 1.0	 0.0	 1.035	 2.3	 1	 1.55	 1.55;
	221	 1.55	 0.5	 1.0	 0.0	 1.035	 2.3	 1	 1.55	 1.55;
	239	 7.0	 3.0	 6.0	 0.0	 1.035	 9.8	 1	 7.0	 7.0;
	246	 330.0	 85.5	 190.0	 -19.0	 1.035	 415.9	 1	 370.0	 290.0;
	309	 0.0	 0.0	 7.0	 0.0	 1.035	 27.9	 0	 0.0	 0.0;
	309	 0.0	 0.0	 7.0	 0.0	 1.035	 27.9	 0	 0.0	 0.0;
	309	 11.0	 5.5	 7.0	 4.0	 1.035	 30.8	 1	 11.0	 11.0;
	309	 0.0	 0.0	 7.0	 0.0	 1.035	 27.9	 0	 0.0	 0.0;
	309	 0.0	 0.0	 6.0	 0.0	 1.035	 27.7	 0	 0.0	 0.0;
	309	 0.0	 0.0	 7.0	 0.0	 1.035	 27.9	 0	 0.0	 0.0;
	309	 0.0	 0.0	 7.0	 0.0	 1.035	 27.9	 0	 0.0	 0.0;
	310	 15.0	 7.5	 15.0	 0.0	 1.035	 36.7	 1	 15.0	 15.0;
	310	 0.0	 0.0	 15.0	 0.0	 1.035	 57.0	 0	 0.0	 0.0;
	311	 15.0	 7.5	 15.0	 0.0	 1.035	 36.7	 1	 15.0	 15.0;
	311	 0.0	 0.0	 15.0	 0.0	 1.035	 57.0	 0	 0.0	 0.0;
	313	 30.0	 10.0	 20.0	 0.0	 1.035	 53.9	 1	 30.0	 30.0;
	313	 0.0	 0.0	 20.0	 0.0	 1.035	 53.9	 0	 0.0	 0.0;
	314	 0.0	 0.0	 40.0	 0.0	 1.035	 107.7	 0	 0.0	 0.0;
	322	 2.5	 1.5	 3.0	 0.0	 1.035	 4.1	 1	 2.5	 2.5;
	365	 43.25	 6.0	 12.0	 0.0	 1.035	 47.8	 1	 43.25	 43.25;
	366	 43.25	 6.0	 12.0	 0.0	 1.035	 47.8	 1	 43.25	 43.25;
	367	 43.25	 6.0	 12.0	 0.0	 1.035	 47.8	 1	 43.25	 43.25;
	368	 43.25	 6.0	 12.0	 0.0	 1.035	 47.8	 1	 43.25	 43.25;
	385	 175.0	 45.5	 138.0	 -47.0	 1.035	 251.3	 1	 210.0	 140.0;
	385	 0.0	 0.0	 10.0	 0.0	 1.035	 26.9	 0	 25.0	 12.0;
	386	 13.5	 5.0	 10.0	 0.0	 1.035	 19.7	 1	 17.0	 10.0;
	443	 1.5	 1.0	 2.0	 0.0	 1.035	 3.6	 1	 1.5	 1.5;
	452	 5.21	 1.0	 2.0	 0.0	 1.035	 6.1	 1	 5.21	 5.21;
	452	 0.0	 0.0	 2.0	 0.0	 1.035	 6.1	 0	 0.0	 0.0;
	485	 1.4	 0.35	 0.7	 0.0	 1.035	 1.7	 1	 1.4	 1.4;
	536	 40.0	 7.0	 14.0	 0.0	 1.035	 53.9	 1	 40.0	 40.0;
	536	 0.0	 0.0	 14.0	 0.0	 1.035	 34.9	 0	 0.0	 0.0;
	536	 0.0	 0.0	 14.0	 0.0	 1.035	 34.0	 0	 0.0	 0.0;
	536	 0.0	 0.0	 14.0	 0.0	 1.035	 105.9	 0	 0.0	 0.0;
	536	 0.0	 0.0	 14.0	 0.0	 1.035	 105.9	 0	 0.0	 0.0;
	537	 25.0	 8.75	 17.5	 0.0	 1.035	 36.5	 1	 25.0	 25.0;
	537	 25.0	 8.75	 17.5	 0.0	 1.035	 35.6	 1	 25.0	 25.0;
	537	 0.0	 0.0	 17.5	 0.0	 1.035	 126.2	 0	 0.0	 0.0;
	537	 0.0	 0.0	 17.5	 0.0	 1.035	 106.4	 0	 0.0	 0.0;
	551	 1.4	 0.35	 0.7	 0.0	 1.035	 1.7	 1	 1.4	 1.4;
	559	 30.0	 2.5	 5.0	 0.0	 1.035	 34.4	 1	 30.0	 30.0;
	559	 0.0	 0.0	 5.0	 0.0	 1.035	 28.4	 0	 0.0	 0.0;
	559	 0.0	 0.0	 5.0	 0.0	 1.035	 26.5	 0	 0.0	 0.0;
	559	 0.0	 0.0	 5.0	 0.0	 1.035	 30.4	 0	 0.0	 0.0;
	559	 0.0	 0.0	 5.0	 0.0	 1.035	 34.4	 0	 0.0	 0.0;
	560	 30.0	 2.5	 5.0	 0.0	 1.035	 34.4	 1	 30.0	 30.0;
	560	 0.0	 0.0	 5.0	 0.0	 1.035	 34.4	 0	 0.0	 0.0;
	560	 0.0	 0.0	 5.0	 0.0	 1.035	 26.5	 0	 0.0	 0.0;
	560	 0.0	 0.0	 5.0	 0.0	 1.035	 34.4	 0	 0.0	 0.0;
	573	 1.0	 2.0	 4.0	 0.0	 1.035	 8.9	 1	 1.0	 1.0;
	626	 78.0	 15.0	 30.0	 0.0	 1.035	 97.7	 1	 78.0	 78.0;
	626	 30.0	 15.0	 30.0	 0.0	 1.035	 46.8	 1	 30.0	 30.0;
	664	 177.5	 55.5	 145.0	 -34.0	 1.035	 267.7	 1	 225.0	 130.0;
	665	 0.0	 0.0	 145.0	 -34.0	 1.035	 267.7	 0	 225.0	 130.0;
	685	 150.0	 15.0	 30.0	 0.0	 1.035	 182.5	 1	 150.0	 150.0;
	685	 50.0	 15.0	 30.0	 0.0	 1.035	 77.5	 1	 50.0	 50.0;
	691	 2.43	 0.9	 1.8	 0.0	 1.035	 3.1	 1	 2.43	 2.43;
	716	 1.47	 0.65	 1.3	 0.0	 1.035	 10.1	 1	 1.47	 1.47;
	740	 177.0	 57.0	 130.0	 -16.0	 1.035	 259.9	 1	 225.0	 129.0;
	763	 86.0	 15.0	 30.0	 0.0	 1.035	 105.4	 1	 86.0	 86.0;
	792	 1.0	 0.5	 1.0	 0.0	 1.035	 8.4	 1	 1.0	 1.0;
	796	 36.55	 11.5	 23.0	 0.0	 1.035	 71.9	 1	 68.1	 5.0;
	796	 0.0	 0.0	 23.0	 0.0	 1.035	 71.9	 0	 68.1	 5.0;
	796	 0.0	 0.0	 11.0	 0.0	 1.035	 32.9	 0	 31.0	 16.0;
	796	 0.0	 0.0	 10.0	 0.0	 1.035	 32.6	 0	 31.0	 16.0;
	807	 0.0	 0.0	 10.0	 0.0	 1.035	 125.4	 0	 125.0	 84.0;
	808	 108.5	 5.0	 10.0	 0.0	 1.035	 125.4	 1	 125.0	 92.0;
	845	 15.0	 4.05	 8.1	 0.0	 1.035	 33.0	 1	 15.0	 15.0;
	845	 15.0	 4.05	 8.1	 0.0	 1.035	 33.0	 1	 15.0	 15.0;
	845	 0.0	 0.0	 0.0	 0.0	 1.035	 19.0	 0	 0.0	 0.0;
	845	 0.0	 0.0	 0.0	 0.0	 1.035	 19.0	 0	 0.0	 0.0;
	877	 35.0	 20.6	 41.2	 0.0	 1.035	 87.7	 1	 35.0	 35.0;
	900	 0.0	 0.0	 45.0	 -10.0	 1.035	 65.8	 0	 0.0	 0.0;
	900	 50.0	 17.5	 45.0	 -10.0	 1.035	 71.1	 1	 50.0	 50.0;
	900	 0.0	 0.0	 45.0	 -10.0	 1.035	 71.1	 0	 0.0	 0.0;
	975	 0.0	 0.0	 110.0	 -40.0	 1.035	 162.2	 0	 0.0	 0.0;
	976	 100.0	 35.0	 110.0	 -40.0	 1.035	 162.2	 1	 100.0	 100.0;
	980	 0.0	 0.0	 0.0	 0.0	 1.035	 16.8	 0	 0.0	 0.0;
	1001	 303.0	 104.0	 240.0	 -32.0	 1.035	 454.5	 1	 386.0	 220.0;
	1002	 295.0	 98.5	 227.0	 -30.0	 1.035	 434.1	 1	 370.0	 220.0;
	1006	 6.0	 0.7235	 1.447	 0.0	 1.035	 7.1	 1	 6.0	 6.0;
	1005	 4.0	 0.2235	 0.447	 0.0	 1.035	 4.0	 1	 4.0	 4.0;
	1006	 4.0	 0.2235	 0.447	 0.0	 1.035	 5.0	 1	 4.0	 4.0;
	1006	 0.0	 0.0	 0.0	 0.0	 1.035	 6.0	 0	 0.0	 0.0;
	1007	 0.0	 0.0	 110.0	 -40.0	 1.035	 174.1	 0	 0.0	 0.0;
	1013	 15.0	 2.4	 4.8	 0.0	 1.035	 20.6	 1	 15.0	 15.0;
	1013	 0.0	 0.0	 0.0	 0.0	 1.035	 12.8	 0	 0.0	 0.0;
	1013	 0.0	 0.0	 0.0	 0.0	 1.035	 12.5	 0	 0.0	 0.0;
	1015	 0.0	 0.0	 0.0	 0.0	 1.035	 20.0	 0	 0.0	 0.0;
	1015	 0.0	 0.0	 0.0	 0.0	 1.035	 19.0	 0	 0.0	 0.0;
	1024	 12.0	 13.5	 18.0	 9.0	 1.035	 30.0	 1	 12.0	 12.0;
	1025	 0.0	 0.0	 18.0	 9.0	 1.035	 30.0	 0	 0.0	 0.0;
	1026	 0.0	 0.0	 14.0	 10.5	 1.035	 32.2	 0	 0.0	 0.0;
	1113	 0.0	 0.0	 37.5	 16.8	 1.035	 62.5	 0	 0.0	 0.0;
	1114	 0.0	 0.0	 37.5	 7.5	 1.035	 62.5	 0	 0.0	 0.0;
	1113	 50.0	 22.5	 37.5	 7.5	 1.035	 62.5	 1	 50.0	 50.0;
	1115	 0.0	 0.0	 37.5	 16.8	 1.035	 62.5	 0	 0.0	 0.0;
	1152	 17.0	 2.6255	 5.251	 0.0	 1.035	 30.5	 1	 17.0	 17.0;
	1152	 0.0	 0.0	 0.0	 0.0	 1.035	 6.0	 0	 0.0	 0.0;
	1153	 17.0	 2.6255	 5.251	 0.0	 1.035	 30.5	 1	 17.0	 17.0;
	1153	 0.0	 0.0	 0.0	 0.0	 1.035	 25.0	 0	 0.0	 0.0;
	1154	 16.0	 2.625	 5.25	 0.0	 1.035	 30.5	 1	 16.0	 16.0;
	1154	 0.0	 0.0	 0.0	 0.0	 1.035	 6.0	 0	 0.0	 0.0;
	1179	 70.0	 26.25	 52.5	 0.0	 1.035	 87.5	 1	 70.0	 70.0;
	1180	 0.0	 0.0	 52.5	 0.0	 1.035	 87.5	 0	 0.0	 0.0;
	1180	 0.0	 0.0	 42.0	 16.8	 1.035	 65.3	 0	 0.0	 0.0;
	1188	 50.0	 0.0	 0.0	 0.0	 1.035	 50.0	 1	 50.0	 50.0;
	1246	 10.0	 1.0	 2.0	 0.0	 1.035	 16.7	 1	 10.0	 10.0;
	1246	 0.0	 0.0	 0.0	 0.0	 1.035	 24.0	 0	 0.0	 0.0;
	1247	 0.0	 0.0	 0.0	 0.0	 1.035	 14.6	 0	 0.0	 0.0;
	1247	 0.0	 0.0	 0.0	 0.0	 1.035	 14.6	 0	 0.0	 0.0;
...
];

%% generator cost data
%	2	startup	shutdown	n	c(n-1)	...	c0
mpc.gencost = [
	2	 0.0	 0.0	 3	   0.000000	 112.780000	   0.000000;
	2	 0.0	 0.0	 3	   0.000000	 112.780000	   0.000000;
	2	 0.0	 0.0	 3	   0.000000	  76.100000	   0.000000;
	2	 0.0	 0.0	 3	   0.000000	  76.100000	   0.000000;
	2	 0.0	 0.0	 3	   0.000000	  76.100000	   0.000000;
	2	 0.0	 0.0	 3	   0.000000	  76.100000	   0.000000;
	2	 0.0	 0.0	 3	   0.000000	  76.100000	   0.000000;
	2	 0.0	 0.0	 3	   0.000000	  76.100000	   0.000000;
	2	 0.0	 0.0	 3	   0.000000	  76.100000	   0.000000;
	2	 0.0	 0.0	 3	   0.000000	  76.100000	   0.000000;
	2	 0.0	 0.0	 3	   0.000000	  76.100000	   0.000000;
	2	 0.0	 0.0	 3	   0.000000	  76.100000	   0.000000;
	2	 0.0	 0.0	 3	   0.000000	  76.100000	   0.000000;
	2	 0.0	 0.0	 3	   0.000000	 102.050000	   0.000000;
	2	 0.0	 0.0	 3	   0.000000	 102.050000	   0.000000;
	2	 0.0	 0.0	 3	   0.000000	 102.050000	   0.000000;
	2	 0.0	 0.0	 3	   0.000000	 102.050000	   0.000000;
	2	 0.0	 0.0	 3	   0.000000	 102.050000	   0.000000;
	2	 0.0	 0.0	 3	   0.000000	 102.050000	   0.000000;
	2	 0.0	 0.0	 3	   0.000000	 102.050000	   0.000000;
	2	 0.0	 0.0	 3	   0.000000	 102.050000	   0.000000;
	2	 0.0	 0.0	 3	   0.000000	 105.350000	   0.000000;
	2	 0.0	 0.0	 3	   0.000000	 105.350000	   0.000000;
	2	 0.0	 0.0	 3	   0.000000	 105.350000	   0.000000;
	2	 0.0	 0.0	 3	   0.000000	 105.350000	   0.000000;
	2	 0.0	 0.0	 3	   0.000000	 105.350000	   0.000000;
	2	 0.0	 0.0	 3	   0.000000	 105.350000	   0.000000;
	2	 0.0	 0.0	 3	   0.000000	 105.350000	   0.000000;
	2	 0.0	 0.0	 3	   0.000000	   0.000000	   0.000000;
	2	 0.0	 0.0	 3	   0.000000	  95.310000	   0.000000;
	2	 0.0	 0.0	 3	   0.000000	  95.310000	   0.000000;
	2	 0.0	 0.0	 3	   0.000000	  95.310000	   0.000000;
	2	 0.0	 0.0	 3	   0.000000	  95.310000	   0.000000;
	2	 0.0	 0.0	 3	   0.000000	  95.310000	   0.000000;
	2	 0.0	 0.0	 3	   0.000000	  90.030000	   0.000000;
	2	 0.0	 0.0	 3	   0.000000	  90.030000	   0.000000;
	2	 0.0	 0.0	 3	   0.000000	   0.000000	   0.000000;
	2	 0.0	 0.0	 3	   0.000000	   0.000000	   0.000000;
	2	 0.0	 0.0	 3	   0.000000	  92.780000	   0.000000;
	2	 0.0	 0.0	 3	   0.000000	  92.780000	   0.000000;
	2	 0.0	 0.0	 3	   0.000000	  94.090000	   0.000000;
	2	 0.0	 0.0	 3	   0.000000	  94.090000	   0.000000;
	2	 0.0	 0.0	 3	   0.000000	  97.120000	   0.000000;
	2	 0.0	 0.0	 3	   0.000000	  97.120000	   0.000000;
	2	 0.0	 0.0	 3	   0.000000	  99.520000	   0.000000;
	2	 0.0	 0.0	 3	   0.000000	  91.160000	   0.000000;
	2	 0.0	 0.0	 3	   0.000000	  91.160000	   0.000000;
	2	 0.0	 0.0	 3	   0.000000	  91.160000	   0.000000;
	2	 0.0	 0.0	 3	   0.000000	  91.160000	   0.000000;
	2	 0.0	 0.0	 3	   0.000000	  91.160000	   0.000000;
	2	 0.0	 0.0	 3	   0.000000	   0.010000	   0.000000;
	2	 0.0	 0.0	 3	   0.000000	   0.010000	   0.000000;
	2	 0.0	 0.0	 3	   0.000000	   0.010000	   0.000000;
	2	 0.0	 0.0	 3	   0.000000	   0.010000	   0.000000;
	2	 0.0	 0.0	 3	   0.000000	  92.430000	   0.000000;
	2	 0.0	 0.0	 3	   0.000000	  92.430000	   0.000000;
	2	 0.0	 0.0	 3	   0.000000	  92.430000	   0.000000;
	2	 0.0	 0.0	 3	   0.000000	  96.420000	   0.000000;
	2	 0.0	 0.0	 3	   0.000000	  96.420000	   0.000000;
	2	 0.0	 0.0	 3	   0.000000	  96.420000	   0.000000;
	2	 0.0	 0.0	 3	   0.000000	 116.010000	   0.000000;
	2	 0.0	 0.0	 3	   0.000000	 116.010000	   0.000000;
	2	 0.0	 0.0	 3	   0.000000	 116.010000	   0.000000;
	2	 0.0	 0.0	 3	   0.000000	 116.010000	   0.000000;
	2	 0.0	 0.0	 3	   0.000000	 116.010000	   0.000000;
	2	 0.0	 0.0	 3	   0.000000	 116.010000	   0.000000;
	2	 0.0	 0.0	 3	   0.000000	 116.010000	   0.000000;
	2	 0.0	 0.0	 3	   0.000000	  98.840000	   0.000000;
	2	 0.0	 0.0	 3	   0.000000	  98.840000	   0.000000;
	2	 0.0	 0.0	 3	   0.000000	  98.840000	   0.000000;
	2	 0.0	 0.0	 3	   0.000000	  98.840000	   0.000000;
	2	 0.0	 0.0	 3	   0.000000	  98.840000	   0.000000;
	2	 0.0	 0.0	 3	   0.000000	  98.840000	   0.000000;
	2	 0.0	 0.0	 3	   0.000000	  98.840000	   0.000000;
	2	 0.0	 0.0	 3	   0.000000	  98.840000	   0.000000;
	2	 0.0	 0.0	 3	   0.000000	  98.840000	   0.000000;
	2	 0.0	 0.0	 3	   0.000000	  89.220000	   0.000000;
	2	 0.0	 0.0	 3	   0.000000	  89.220000	   0.000000;
	2	 0.0	 0.0	 3	   0.000000	  89.220000	   0.000000;
	2	 0.0	 0.0	 3	   0.000000	  89.220000	   0.000000;
	2	 0.0	 0.0	 3	   0.000000	   0.000000	   0.000000;
	2	 0.0	 0.0	 3	   0.000000	   0.010000	   0.000000;
	2	 0.0	 0.0	 3	   0.000000	   0.010000	   0.000000;
	2	 0.0	 0.0	 3	   0.000000	   0.010000	   0.000000;
	2	 0.0	 0.0	 3	   0.000000	   0.010000	   0.000000;
	2	 0.0	 0.0	 3	   0.000000	   0.000000	   0.000000;
	2	 0.0	 0.0	 3	   0.000000	   0.000000	   0.000000;
	2	 0.0	 0.0	 3	   0.000000	   0.000000	   0.000000;
	2	 0.0	 0.0	 3	   0.000000	   0.000000	   0.000000;
	2	 0.0	 0.0	 3	   0.000000	   0.000000	   0.000000;
	2	 0.0	 0.0	 3	   0.000000	   0.000000	   0.000000;
	2	 0.0	 0.0	 3	   0.000000	   0.000000	   0.000000;
	2	 0.0	 0.0	 3	   0.000000	  76.100000	   0.000000;
	2	 0.0	 0.0	 3	   0.000000	   0.000000	   0.000000;
	2	 0.0	 0.0	 3	   0.000000	   0.000000	   0.000000;
	2	 0.0	 0.0	 3	   0.000000	   0.000000	   0.000000;
	2	 0.0	 0.0	 3	   0.000000	   0.000000	   0.000000;
	2	 0.0	 0.0	 3	   0.000000	   0.000000	   0.000000;
	2	 0.0	 0.0	 3	   0.000000	   0.000000	   0.000000;
	2	 0.0	 0.0	 3	   0.000000	   0.000000	   0.000000;
	2	 0.0	 0.0	 3	   0.000000	   0.000000	   0.000000;
	2	 0.0	 0.0	 3	   0.000000	   0.000000	   0.000000;
	2	 0.0	 0.0	 3	   0.000000	   0.000000	   0.000000;
	2	 0.0	 0.0	 3	   0.000000	   0.000000	   0.000000;
	2	 0.0	 0.0	 3	   0.000000	   0.000000	   0.000000;
	2	 0.0	 0.0	 3	   0.000000	   0.000000	   0.000000;
	2	 0.0	 0.0	 3	   0.000000	   0.000000	   0.000000;
	2	 0.0	 0.0	 3	   0.000000	   0.000000	   0.000000;
	2	 0.0	 0.0	 3	   0.000000	   0.000000	   0.000000;
	2	 0.0	 0.0	 3	   0.000000	   0.000000	   0.000000;
	2	 0.0	 0.0	 3	   0.000000	   0.000000	   0.000000;
	2	 0.0	 0.0	 3	   0.000000	   0.000000	   0.000000;
	2	 0.0	 0.0	 3	   0.000000	 112.780000	   0.000000;
	2	 0.0	 0.0	 3	   0.000000	 112.780000	   0.000000;
	2	 0.0	 0.0	 3	   0.000000	 112.780000	   0.000000;
	2	 0.0	 0.0	 3	   0.000000	   0.000000	   0.000000;
	2	 0.0	 0.0	 3	   0.000000	   0.000000	   0.000000;
	2	 0.0	 0.0	 3	   0.000000	   0.000000	   0.000000;
	2	 0.0	 0.0	 3	   0.000000	   0.000000	   0.000000;
	2	 0.0	 0.0	 3	   0.000000	   0.000000	   0.000000;
	2	 0.0	 0.0	 3	   0.000000	   0.000000	   0.000000;
	2	 0.0	 0.0	 3	   0.000000	   0.000000	   0.000000;
	2	 0.0	 0.0	 3	   0.000000	   0.000000	   0.000000;
	2	 0.0	 0.0	 3	   0.000000	   0.000000	   0.000000;
	2	 0.0	 0.0	 3	   0.000000	   0.000000	   0.000000;
	2	 0.0	 0.0	 3	   0.000000	   0.000000	   0.000000;
	2	 0.0	 0.0	 3	   0.000000	   0.000000	   0.000000;
	2	 0.0	 0.0	 3	   0.000000	   0.000000	   0.000000;
	2	 0.0	 0.0	 3	   0.000000	   0.000000	   0.000000;
	2	 0.0	 0.0	 3	   0.000000	   0.000000	   0.000000;
	2	 0.0	 0.0	 3	   0.000000	   0.000000	   0.000000;
	2	 0.0	 0.0	 3	   0.000000	   0.000000	   0.000000;
	2	 0.0	 0.0	 3	   0.000000	   0.000000	   0.000000;
	2	 0.0	 0.0	 3	   0.000000	   0.000000	   0.000000;
	2	 0.0	 0.0	 3	   0.000000	   0.000000	   0.000000;
	2	 0.0	 0.0	 3	   0.000000	   0.000000	   0.000000;
	2	 0.0	 0.0	 3	   0.000000	   0.000000	   0.000000;
	2	 0.0	 0.0	 3	   0.000000	   0.000000	   0.000000;
	2	 0.0	 0.0	 3	   0.000000	   0.000000	   0.000000;
	2	 0.0	 0.0	 3	   0.000000	   0.000000	   0.000000;
	2	 0.0	 0.0	 3	   0.000000	   0.000000	   0.000000;
	2	 0.0	 0.0	 3	   0.000000	 102.050000	   0.000000;
	2	 0.0	 0.0	 3	   0.000000	 102.050000	   0.000000;
	2	 0.0	 0.0	 3	   0.000000	   0.000000	   0.000000;
	2	 0.0	 0.0	 3	   0.000000	   0.000000	   0.000000;
	2	 0.0	 0.0	 3	   0.000000	   0.000000	   0.000000;
	2	 0.0	 0.0	 3	   0.000000	   0.000000	   0.000000;
	2	 0.0	 0.0	 3	   0.000000	 105.350000	   0.000000;
	2	 0.0	 0.0	 3	   0.000000	   0.000000	   0.000000;
	2	 0.0	 0.0	 3	   0.000000	   0.000000	   0.000000;
	2	 0.0	 0.0	 3	   0.000000	   0.010000	   0.000000;
	2	 0.0	 0.0	 3	   0.000000	   0.010000	   0.000000;
	2	 0.0	 0.0	 3	   0.000000	   0.010000	   0.000000;
	2	 0.0	 0.0	 3	   0.000000	   0.010000	   0.000000;
	2	 0.0	 0.0	 3	   0.000000	 111.630000	   0.000000;
	2	 0.0	 0.0	 3	   0.000000	 111.630000	   0.000000;
	2	 0.0	 0.0	 3	   0.000000	   0.000000	   0.000000;
	2	 0.0	 0.0	 3	   0.000000	   0.000000	   0.000000;
	2	 0.0	 0.0	 3	   0.000000	   0.000000	   0.000000;
	2	 0.0	 0.0	 3	   0.000000	   0.000000	   0.000000;
	2	 0.0	 0.0	 3	   0.000000	   0.000000	   0.000000;
	2	 0.0	 0.0	 3	   0.000000	   0.000000	   0.000000;
	2	 0.0	 0.0	 3	   0.000000	   0.000000	   0.000000;
	2	 0.0	 0.0	 3	   0.000000	   0.000000	   0.000000;
	2	 0.0	 0.0	 3	   0.000000	   0.000000	   0.000000;
	2	 0.0	 0.0	 3	   0.000000	   0.000000	   0.000000;
	2	 0.0	 0.0	 3	   0.000000	   0.000000	   0.000000;
	2	 0.0	 0.0	 3	   0.000000	  90.030000	   0.000000;
	2	 0.0	 0.0	 3	   0.000000	  90.030000	   0.000000;
	2	 0.0	 0.0	 3	   0.000000	   0.000000	   0.000000;
	2	 0.0	 0.0	 3	   0.000000	   0.000000	   0.000000;
	2	 0.0	 0.0	 3	   0.000000	   0.000000	   0.000000;
	2	 0.0	 0.0	 3	   0.000000	   0.000000	   0.000000;
	2	 0.0	 0.0	 3	   0.000000	   0.000000	   0.000000;
	2	 0.0	 0.0	 3	   0.000000	   0.000000	   0.000000;
	2	 0.0	 0.0	 3	   0.000000	   0.000000	   0.000000;
	2	 0.0	 0.0	 3	   0.000000	   0.000000	   0.000000;
	2	 0.0	 0.0	 3	   0.000000	   0.000000	   0.000000;
	2	 0.0	 0.0	 3	   0.000000	   0.000000	   0.000000;
	2	 0.0	 0.0	 3	   0.000000	   0.000000	   0.000000;
	2	 0.0	 0.0	 3	   0.000000	   0.000000	   0.000000;
	2	 0.0	 0.0	 3	   0.000000	   0.000000	   0.000000;
	2	 0.0	 0.0	 3	   0.000000	   0.000000	   0.000000;
	2	 0.0	 0.0	 3	   0.000000	   0.000000	   0.000000;
	2	 0.0	 0.0	 3	   0.000000	   0.000000	   0.000000;
	2	 0.0	 0.0	 3	   0.000000	   0.000000	   0.000000;
	2	 0.0	 0.0	 3	   0.000000	   0.000000	   0.000000;
	2	 0.0	 0.0	 3	   0.000000	   0.000000	   0.000000;
	2	 0.0	 0.0	 3	   0.000000	   0.000000	   0.000000;
	2	 0.0	 0.0	 3	   0.000000	   0.000000	   0.000000;
	2	 0.0	 0.0	 3	   0.000000	   0.000000	   0.000000;
	2	 0.0	 0.0	 3	   0.000000	   0.000000	   0.000000;
	2	 0.0	 0.0	 3	   0.000000	   0.000000	   0.000000;
	2	 0.0	 0.0	 3	   0.000000	   0.000000	   0.000000;
	2	 0.0	 0.0	 3	   0.000000	   0.000000	   0.000000;
	2	 0.0	 0.0	 3	   0.000000	   0.000000	   0.000000;
	2	 0.0	 0.0	 3	   0.000000	   0.000000	   0.000000;
	2	 0.0	 0.0	 3	   0.000000	   0.000000	   0.000000;
	2	 0.0	 0.0	 3	   0.000000	   0.000000	   0.000000;
	2	 0.0	 0.0	 3	   0.000000	   0.000000	   0.000000;
...
];

%% branch data
%	fbus	tbus	r	x	b	rateA	rateB	rateC	ratio	angle	status	angmin	angmax
mpc.branch = [
	7	 8	 0.00064	 0.0305	 0.0	 400.0	 400.0	 400.0	 1.0435	 0.6	 1	 -30.0	 30.0;
	26	 28	 0.00036	 0.02519	 0.0	 500.0	 500.0	 500.0	 1.067	 0.0	 1	 -30.0	 30.0;
	27	 29	 0.00036	 0.02519	 0.0	 500.0	 500.0	 500.0	 1.0671	 0.0	 1	 -30.0	 30.0;
	39	 41	 0.00034	 0.02097	 0.0	 500.0	 500.0	 500.0	 1.1102	 0.0	 1	 -30.0	 30.0;
	42	 45	 0.00034	 0.02097	 0.0	 500.0	 500.0	 500.0	 1.0917	 0.0	 1	 -30.0	 30.0;
	54	 56	 0.00081	 0.03	 0.0	 400.0	 400.0	 400.0	 1.0466	 0.0	 1	 -30.0	 30.0;
	89	 91	 0.00075	 0.02444	 -0.00832	 330.0	 330.0	 330.0	 1.0553	 0.0	 1	 -30.0	 30.0;
	90	 92	 0.00075	 0.02469	 -0.008	 330.0	 330.0	 330.0	 1.0552	 0.0	 1	 -30.0	 30.0;
	124	 127	 0.0005	 0.02875	 -0.016	 400.0	 400.0	 400.0	 1.087	 0.0	 1	 -30.0	 30.0;
	148	 149	 0.00064	 0.0305	 0.0	 400.0	 400.0	 400.0	 1.0636	 0.0	 1	 -30.0	 30.0;
	154	 156	 0.000232	 0.023	 0.0	 500.0	 500.0	 500.0	 1.0953	 0.0	 1	 -30.0	 30.0;
	155	 157	 0.000232	 0.023	 0.0	 500.0	 500.0	 500.0	 1.0953	 0.0	 1	 -30.0	 30.0;
	168	 170	 0.00035	 0.02375	 0.0	 500.0	 500.0	 500.0	 1.0767	 0.0	 1	 -30.0	 30.0;
	182	 183	 0.00059	 0.03093	 0.0	 400.0	 400.0	 400.0	 1.0504	 0.0	 1	 -30.0	 30.0;
	189	 191	 0.0004	 0.03	 0.0	 500.0	 500.0	 500.0	 1.0695	 -3.6	 1	 -30.0	 30.0;
	2726	 156	 0.00031	 0.00338	 0.0992	 1386.0	 1386.0	 1386.0	 0.0	 0.0	 1	 -30.0	 30.0;
	2726	 157	 0.00031	 0.00338	 0.0992	 1386.0	 1386.0	 1386.0	 0.0	 0.0	 1	 -30.0	 30.0;
	2727	 67	 0.014341	 0.083531	 0.126034	 385.0	 385.0	 385.0	 0.0	 0.0	 1	 -30.0	 30.0;
	2725	 75	 0.01219	 0.070659	 0.117418	 412.0	 412.0	 412.0	 0.0	 0.0	 1	 -30.0	 30.0;
	2725	 104	 0.011781	 0.07087	 0.116838	 412.0	 412.0	 412.0	 0.0	 0.0	 1	 -30.0	 30.0;
	126	 2724	 0.001525	 0.016837	 0.50576	 1386.0	 1386.0	 1386.0	 0.0	 0.0	 1	 -30.0	 30.0;
	2728	 147	 0.001651	 0.015909	 0.046948	 316.0	 316.0	 316.0	 0.0	 0.0	 1	 -30.0	 30.0;
	2728	 148	 0.001651	 0.015909	 0.046948	 316.0	 316.0	 316.0	 0.0	 0.0	 1	 -30.0	 30.0;
	2729	 47	 0.00188	 0.02287	 0.6432	 831.0	 831.0	 831.0	 0.0	 0.0	 1	 -30.0	 30.0;
	2729	 48	 0.00188	 0.02287	 0.6432	 831.0	 831.0	 831.0	 0.0	 0.0	 1	 -30.0	 30.0;
	81	 2723	 0.002769	 0.031162	 0.89824	 1386.0	 1386.0	 1386.0	 0.0	 0.0	 1	 -30.0	 30.0;
	42	 23	 0.01345	 0.081141	 0.141134	 339.0	 339.0	 339.0	 0.0	 0.0	 1	 -30.0	 30.0;
	26	 89	 0.009091	 0.062401	 0.111417	 453.0	 453.0	 453.0	 0.0	 0.0	 1	 -30.0	 30.0;
	27	 90	 0.00868	 0.06405	 0.096994	 427.0	 427.0	 427.0	 0.0	 0.0	 1	 -30.0	 30.0;
	145	 30	 0.016961	 0.123659	 0.196988	 316.0	 316.0	 316.0	 0.0	 0.0	 1	 -30.0	 30.0;
	134	 33	 0.00512	 0.02618	 0.029621	 301.0	 301.0	 301.0	 0.0	 0.0	 1	 -30.0	 30.0;
	133	 20	 0.01068	 0.061961	 0.094961	 385.0	 385.0	 385.0	 0.0	 0.0	 1	 -30.0	 30.0;
	163	 21	 0.014651	 0.105891	 0.170852	 316.0	 316.0	 316.0	 0.0	 0.0	 1	 -30.0	 30.0;
	40	 108	 0.01488	 0.08161	 0.114805	 314.0	 314.0	 314.0	 0.0	 0.0	 1	 -30.0	 30.0;
	39	 90	 0.011159	 0.07231	 0.103673	 324.0	 324.0	 324.0	 0.0	 0.0	 1	 -30.0	 30.0;
	177	 82	 0.005517	 0.059484	 0.170775	 316.0	 316.0	 316.0	 0.0	 0.0	 1	 -30.0	 30.0;
	202	 164	 0.01176	 0.068289	 0.102802	 324.0	 324.0	 324.0	 0.0	 0.0	 1	 -30.0	 30.0;
	193	 164	 0.016818	 0.089091	 0.129935	 358.0	 358.0	 358.0	 0.0	 0.0	 1	 -30.0	 30.0;
	192	 163	 0.013843	 0.087025	 0.134842	 383.0	 383.0	 383.0	 0.0	 0.0	 1	 -30.0	 30.0;
	206	 166	 0.01676	 0.097169	 0.148685	 269.0	 269.0	 269.0	 0.0	 0.0	 1	 -30.0	 30.0;
	42	 10	 0.01269	 0.074979	 0.130196	 351.0	 351.0	 351.0	 0.0	 0.0	 1	 -30.0	 30.0;
	197	 18	 0.014091	 0.10413	 0.15972	 316.0	 316.0	 316.0	 0.0	 0.0	 1	 -30.0	 30.0;
	99	 54	 0.003719	 0.0438	 0.100962	 457.0	 457.0	 457.0	 0.0	 0.0	 1	 -30.0	 30.0;
	161	 81	 0.00194	 0.02056	 0.51584	 1178.0	 1178.0	 1178.0	 0.0	 0.0	 1	 -30.0	 30.0;
	44	 9	 0.0015	 0.01506	 0.4032	 1386.0	 1386.0	 1386.0	 0.0	 0.0	 1	 -30.0	 30.0;
	184	 149	 0.00294	 0.03463	 0.9216	 693.0	 693.0	 693.0	 0.0	 0.0	 1	 -30.0	 30.0;
	120	 56	 0.00169	 0.01994	 0.50624	 831.0	 831.0	 831.0	 0.0	 0.0	 1	 -30.0	 30.0;
	29	 92	 0.00137	 0.01625	 0.41184	 1386.0	 1386.0	 1386.0	 0.0	 0.0	 1	 -30.0	 30.0;
	28	 122	 0.00231	 0.02769	 0.70144	 1386.0	 1386.0	 1386.0	 0.0	 0.0	 1	 -30.0	 30.0;
	25	 191	 0.00207	 0.02474	 0.664	 1386.0	 1386.0	 1386.0	 0.0	 0.0	 1	 -30.0	 30.0;
	119	 63	 0.0015	 0.01788	 0.4512	 831.0	 831.0	 831.0	 0.0	 0.0	 1	 -30.0	 30.0;
	121	 63	 0.00469	 0.05544	 1.4048	 831.0	 831.0	 831.0	 0.0	 0.0	 1	 -30.0	 30.0;
	81	 31	 0.00331	 0.03425	 0.85888	 977.0	 977.0	 977.0	 0.0	 0.0	 1	 -30.0	 30.0;
	91	 28	 0.00219	 0.02369	 0.59584	 1178.0	 1178.0	 1178.0	 0.0	 0.0	 1	 -30.0	 30.0;
	12	 4	 0.01674	 0.09711	 0.144232	 427.0	 427.0	 427.0	 0.0	 0.0	 1	 -30.0	 30.0;
	30	 11	 0.0057	 0.0407	 0.06021	 316.0	 316.0	 316.0	 0.0	 0.0	 1	 -30.0	 30.0;
	24	 4	 0.004419	 0.032229	 0.049852	 383.0	 383.0	 383.0	 0.0	 0.0	 1	 -30.0	 30.0;
	17	 7	 0.014591	 0.11219	 0.165528	 383.0	 383.0	 383.0	 0.0	 0.0	 1	 -30.0	 30.0;
	21	 10	 0.01211	 0.087419	 0.140166	 316.0	 316.0	 316.0	 0.0	 0.0	 1	 -30.0	 30.0;
	26	 5	 0.009773	 0.050516	 0.088959	 377.0	 377.0	 377.0	 0.0	 0.0	 1	 -30.0	 30.0;
	17	 3	 0.01068	 0.07895	 0.245194	 274.0	 274.0	 274.0	 0.0	 0.0	 1	 -30.0	 30.0;
	26	 19	 0.0057	 0.039521	 0.075533	 440.0	 440.0	 440.0	 0.0	 0.0	 1	 -30.0	 30.0;
	27	 20	 0.0057	 0.039521	 0.075533	 440.0	 440.0	 440.0	 0.0	 0.0	 1	 -30.0	 30.0;
	13	 6	 0.00525	 0.03988	 0.061952	 316.0	 316.0	 316.0	 0.0	 0.0	 1	 -30.0	 30.0;
	13	 12	 2.1e-05	 0.000207	 0.0	 316.0	 316.0	 316.0	 0.0	 0.0	 1	 -30.0	 30.0;
	32	 13	 0.00093	 0.00651	 0.011132	 316.0	 316.0	 316.0	 0.0	 0.0	 1	 -30.0	 30.0;
	23	 11	 0.00205	 0.01326	 0.022429	 385.0	 385.0	 385.0	 0.0	 0.0	 1	 -30.0	 30.0;
	33	 5	 0.007831	 0.043	 0.04962	 301.0	 301.0	 301.0	 0.0	 0.0	 1	 -30.0	 30.0;
	19	 4	 0.00293	 0.01599	 0.024781	 324.0	 324.0	 324.0	 0.0	 0.0	 1	 -30.0	 30.0;
	26	 1	 0.00155	 0.01169	 0.018198	 633.0	 633.0	 633.0	 0.0	 0.0	 1	 -30.0	 30.0;
	27	 2	 0.00155	 0.01169	 0.018198	 633.0	 633.0	 633.0	 0.0	 0.0	 1	 -30.0	 30.0;
	27	 24	 0.003841	 0.028531	 0.045883	 392.0	 392.0	 392.0	 0.0	 0.0	 1	 -30.0	 30.0;
	25	 9	 0.00298	 0.03418	 0.93504	 831.0	 831.0	 831.0	 0.0	 0.0	 1	 -30.0	 30.0;
	28	 25	 0.00358	 0.04262	 1.0944	 1386.0	 1386.0	 1386.0	 0.0	 0.0	 1	 -30.0	 30.0;
	14	 29	 0.00336	 0.03977	 1.02163	 1316.0	 1316.0	 1316.0	 0.0	 0.0	 1	 -30.0	 30.0;
	8	 15	 0.00299	 0.03675	 0.9184	 1150.0	 1150.0	 1150.0	 0.0	 0.0	 1	 -30.0	 30.0;
	8	 14	 0.00112	 0.01329	 0.341248	 1150.0	 1150.0	 1150.0	 0.0	 0.0	 1	 -30.0	 30.0;
	31	 29	 0.00075	 0.009	 0.22848	 1150.0	 1150.0	 1150.0	 0.0	 0.0	 1	 -30.0	 30.0;
	62	 58	 0.010479	 0.060969	 0.092047	 269.0	 269.0	 269.0	 0.0	 0.0	 1	 -30.0	 30.0;
	60	 55	 0.00882	 0.065641	 0.100662	 274.0	 274.0	 274.0	 0.0	 0.0	 1	 -30.0	 30.0;
	66	 34	 0.011219	 0.065581	 0.098349	 274.0	 274.0	 274.0	 0.0	 0.0	 1	 -30.0	 30.0;
	50	 34	 0.01163	 0.07031	 0.105802	 341.0	 341.0	 341.0	 0.0	 0.0	 1	 -30.0	 30.0;
	58	 42	 0.00545	 0.040211	 0.066986	 404.0	 404.0	 404.0	 0.0	 0.0	 1	 -30.0	 30.0;
	59	 43	 0.00545	 0.040211	 0.066986	 404.0	 404.0	 404.0	 0.0	 0.0	 1	 -30.0	 30.0;
	59	 34	 0.00837	 0.04868	 0.073481	 379.0	 379.0	 379.0	 0.0	 0.0	 1	 -30.0	 30.0;
	67	 51	 0.003159	 0.02076	 0.03146	 385.0	 385.0	 385.0	 0.0	 0.0	 1	 -30.0	 30.0;
	51	 38	 0.006979	 0.051961	 0.079666	 316.0	 316.0	 316.0	 0.0	 0.0	 1	 -30.0	 30.0;
	36	 55	 0.00374	 0.027831	 0.042689	 274.0	 274.0	 274.0	 0.0	 0.0	 1	 -30.0	 30.0;
	37	 35	 0.00769	 0.057271	 0.087894	 316.0	 316.0	 316.0	 0.0	 0.0	 1	 -30.0	 30.0;
	54	 37	 0.00556	 0.04145	 0.063598	 383.0	 383.0	 383.0	 0.0	 0.0	 1	 -30.0	 30.0;
	66	 36	 0.004521	 0.03368	 0.051691	 392.0	 392.0	 392.0	 0.0	 0.0	 1	 -30.0	 30.0;
	66	 65	 0.00151	 0.008781	 0.013165	 341.0	 341.0	 341.0	 0.0	 0.0	 1	 -30.0	 30.0;
	61	 42	 0.00574	 0.042831	 0.065727	 404.0	 404.0	 404.0	 0.0	 0.0	 1	 -30.0	 30.0;
	62	 43	 0.00707	 0.045409	 0.069309	 314.0	 314.0	 314.0	 0.0	 0.0	 1	 -30.0	 30.0;
	61	 39	 0.01213	 0.062151	 0.093712	 314.0	 314.0	 314.0	 0.0	 0.0	 1	 -30.0	 30.0;
	60	 40	 0.002479	 0.017979	 0.027588	 316.0	 316.0	 316.0	 0.0	 0.0	 1	 -30.0	 30.0;
	46	 39	 0.002401	 0.01494	 0.022525	 341.0	 341.0	 341.0	 0.0	 0.0	 1	 -30.0	 30.0;
	49	 45	 0.00167	 0.0189	 0.54176	 1150.0	 1150.0	 1150.0	 0.0	 0.0	 1	 -30.0	 30.0;
	57	 53	 0.00109	 0.01277	 0.34176	 1150.0	 1150.0	 1150.0	 0.0	 0.0	 1	 -30.0	 30.0;
	41	 57	 0.002259	 0.026439	 0.70784	 1150.0	 1150.0	 1150.0	 0.0	 0.0	 1	 -30.0	 30.0;
	63	 57	 0.00094	 0.01097	 0.29376	 1393.0	 1393.0	 1393.0	 0.0	 0.0	 1	 -30.0	 30.0;
	47	 64	 0.00113	 0.01406	 0.37488	 1386.0	 1386.0	 1386.0	 0.0	 0.0	 1	 -30.0	 30.0;
	52	 44	 0.00176	 0.02144	 0.57344	 1150.0	 1150.0	 1150.0	 0.0	 0.0	 1	 -30.0	 30.0;
	95	 124	 0.004876	 0.033616	 0.059609	 404.0	 404.0	 404.0	 0.0	 0.0	 1	 -30.0	 30.0;
	74	 105	 0.01093	 0.059194	 0.08439	 246.0	 246.0	 246.0	 0.0	 0.0	 1	 -30.0	 30.0;
	105	 93	 0.001942	 0.013926	 0.022845	 404.0	 404.0	 404.0	 0.0	 0.0	 1	 -30.0	 30.0;
	78	 84	 0.004318	 0.029752	 0.05264	 316.0	 316.0	 316.0	 0.0	 0.0	 1	 -30.0	 30.0;
	130	 129	 0.000661	 0.004959	 0.007579	 379.0	 379.0	 379.0	 0.0	 0.0	 1	 -30.0	 30.0;
	106	 130	 0.005372	 0.040393	 0.060055	 379.0	 379.0	 379.0	 0.0	 0.0	 1	 -30.0	 30.0;
	90	 130	 0.000826	 0.005248	 0.008683	 301.0	 301.0	 301.0	 0.0	 0.0	 1	 -30.0	 30.0;
	99	 118	 0.015888	 0.087603	 0.116818	 314.0	 314.0	 314.0	 0.0	 0.0	 1	 -30.0	 30.0;
	80	 112	 0.002169	 0.014587	 0.025749	 269.0	 269.0	 269.0	 0.0	 0.0	 1	 -30.0	 30.0;
	115	 100	 0.017727	 0.116777	 0.163611	 246.0	 246.0	 246.0	 0.0	 0.0	 1	 -30.0	 30.0;
	125	 73	 0.00593	 0.04093	 0.072145	 404.0	 404.0	 404.0	 0.0	 0.0	 1	 -30.0	 30.0;
	107	 89	 0.003905	 0.028471	 0.044983	 383.0	 383.0	 383.0	 0.0	 0.0	 1	 -30.0	 30.0;
	117	 78	 0.008161	 0.042417	 0.061197	 356.0	 356.0	 356.0	 0.0	 0.0	 1	 -30.0	 30.0;
	118	 77	 0.008161	 0.042417	 0.061197	 356.0	 356.0	 356.0	 0.0	 0.0	 1	 -30.0	 30.0;
	78	 75	 0.005186	 0.038388	 0.058748	 453.0	 453.0	 453.0	 0.0	 0.0	 1	 -30.0	 30.0;
	77	 72	 0.002128	 0.014029	 0.022603	 301.0	 301.0	 301.0	 0.0	 0.0	 1	 -30.0	 30.0;
	113	 77	 0.004628	 0.027748	 0.046115	 324.0	 324.0	 324.0	 0.0	 0.0	 1	 -30.0	 30.0;
	102	 71	 0.011219	 0.070744	 0.115705	 246.0	 246.0	 246.0	 0.0	 0.0	 1	 -30.0	 30.0;
	109	 116	 0.006012	 0.041467	 0.073636	 383.0	 383.0	 383.0	 0.0	 0.0	 1	 -30.0	 30.0;
	90	 68	 0.002066	 0.012789	 0.020551	 269.0	 269.0	 269.0	 0.0	 0.0	 1	 -30.0	 30.0;
	85	 89	 0.001364	 0.009731	 0.016243	 453.0	 453.0	 453.0	 0.0	 0.0	 1	 -30.0	 30.0;
	128	 86	 0.000579	 0.004112	 0.007008	 404.0	 404.0	 404.0	 0.0	 0.0	 1	 -30.0	 30.0;
	131	 75	 0.000847	 0.00624	 0.009544	 457.0	 457.0	 457.0	 0.0	 0.0	 1	 -30.0	 30.0;
	132	 76	 0.000847	 0.00626	 0.009477	 457.0	 457.0	 457.0	 0.0	 0.0	 1	 -30.0	 30.0;
	101	 76	 0.001591	 0.011116	 0.019128	 453.0	 453.0	 453.0	 0.0	 0.0	 1	 -30.0	 30.0;
	124	 103	 0.003141	 0.021591	 0.038391	 404.0	 404.0	 404.0	 0.0	 0.0	 1	 -30.0	 30.0;
	125	 110	 0.004545	 0.03157	 0.055312	 316.0	 316.0	 316.0	 0.0	 0.0	 1	 -30.0	 30.0;
	103	 83	 0.001446	 0.009917	 0.017598	 316.0	 316.0	 316.0	 0.0	 0.0	 1	 -30.0	 30.0;
	104	 94	 0.003822	 0.026674	 0.046154	 316.0	 316.0	 316.0	 0.0	 0.0	 1	 -30.0	 30.0;
	111	 79	 0.007769	 0.041281	 0.063907	 269.0	 269.0	 269.0	 0.0	 0.0	 1	 -30.0	 30.0;
	88	 77	 0.004463	 0.030413	 0.048671	 246.0	 246.0	 246.0	 0.0	 0.0	 1	 -30.0	 30.0;
	116	 107	 0.005888	 0.035062	 0.052349	 246.0	 246.0	 246.0	 0.0	 0.0	 1	 -30.0	 30.0;
	108	 98	 0.003161	 0.023409	 0.036165	 316.0	 316.0	 316.0	 0.0	 0.0	 1	 -30.0	 30.0;
	115	 78	 0.001839	 0.012603	 0.022399	 316.0	 316.0	 316.0	 0.0	 0.0	 1	 -30.0	 30.0;
	106	 87	 0.001715	 0.009607	 0.014239	 301.0	 301.0	 301.0	 0.0	 0.0	 1	 -30.0	 30.0;
	97	 78	 0.003409	 0.024421	 0.039969	 246.0	 246.0	 246.0	 0.0	 0.0	 1	 -30.0	 30.0;
	116	 77	 0.001839	 0.012603	 0.02239	 316.0	 316.0	 316.0	 0.0	 0.0	 1	 -30.0	 30.0;
	82	 96	 0.005702	 0.041488	 0.066172	 404.0	 404.0	 404.0	 0.0	 0.0	 1	 -30.0	 30.0;
	123	 117	 0.004587	 0.024628	 0.036165	 314.0	 314.0	 314.0	 0.0	 0.0	 1	 -30.0	 30.0;
	123	 109	 0.002149	 0.013327	 0.022109	 246.0	 246.0	 246.0	 0.0	 0.0	 1	 -30.0	 30.0;
	99	 70	 0.000785	 0.004876	 0.00726	 269.0	 269.0	 269.0	 0.0	 0.0	 1	 -30.0	 30.0;
	100	 69	 0.000785	 0.004876	 0.007241	 269.0	 269.0	 269.0	 0.0	 0.0	 1	 -30.0	 30.0;
	92	 126	 0.002413	 0.027544	 0.767968	 831.0	 831.0	 831.0	 0.0	 0.0	 1	 -30.0	 30.0;
	81	 126	 0.002131	 0.024319	 0.67744	 1386.0	 1386.0	 1386.0	 0.0	 0.0	 1	 -30.0	 30.0;
	121	 114	 0.000913	 0.0104	 0.289888	 1150.0	 1150.0	 1150.0	 0.0	 0.0	 1	 -30.0	 30.0;
	122	 120	 0.003119	 0.035631	 0.991072	 831.0	 831.0	 831.0	 0.0	 0.0	 1	 -30.0	 30.0;
	114	 127	 0.000919	 0.010512	 0.292928	 1150.0	 1150.0	 1150.0	 0.0	 0.0	 1	 -30.0	 30.0;
	172	 155	 0.01545	 0.073349	 0.126614	 427.0	 427.0	 427.0	 0.0	 0.0	 1	 -30.0	 30.0;
	173	 154	 0.01545	 0.073349	 0.126614	 427.0	 427.0	 427.0	 0.0	 0.0	 1	 -30.0	 30.0;
	175	 154	 0.01457	 0.07955	 0.14007	 324.0	 324.0	 324.0	 0.0	 0.0	 1	 -30.0	 30.0;
	176	 155	 0.01457	 0.07955	 0.14007	 324.0	 324.0	 324.0	 0.0	 0.0	 1	 -30.0	 30.0;
	175	 143	 0.006031	 0.04401	 0.069793	 316.0	 316.0	 316.0	 0.0	 0.0	 1	 -30.0	 30.0;
	164	 139	 0.011031	 0.08057	 0.124127	 404.0	 404.0	 404.0	 0.0	 0.0	 1	 -30.0	 30.0;
	136	 154	 0.005831	 0.04231	 0.070664	 383.0	 383.0	 383.0	 0.0	 0.0	 1	 -30.0	 30.0;
	169	 172	 0.01849	 0.095599	 0.159139	 305.0	 305.0	 305.0	 0.0	 0.0	 1	 -30.0	 30.0;
	151	 173	 0.010581	 0.053	 0.088475	 385.0	 385.0	 385.0	 0.0	 0.0	 1	 -30.0	 30.0;
	153	 155	 0.012521	 0.091359	 0.145394	 453.0	 453.0	 453.0	 0.0	 0.0	 1	 -30.0	 30.0;
	135	 136	 0.00506	 0.036539	 0.063598	 305.0	 305.0	 305.0	 0.0	 0.0	 1	 -30.0	 30.0;
	147	 142	 0.01043	 0.077891	 0.122065	 383.0	 383.0	 383.0	 0.0	 0.0	 1	 -30.0	 30.0;
	152	 180	 0.007702	 0.056917	 0.086733	 316.0	 316.0	 316.0	 0.0	 0.0	 1	 -30.0	 30.0;
	152	 179	 0.002256	 0.016674	 0.02541	 333.0	 333.0	 333.0	 0.0	 0.0	 1	 -30.0	 30.0;
	174	 146	 0.009147	 0.089554	 0.215196	 246.0	 246.0	 246.0	 0.0	 0.0	 1	 -30.0	 30.0;
	174	 168	 0.00244	 0.01318	 0.021296	 341.0	 341.0	 341.0	 0.0	 0.0	 0	 -30.0	 30.0;
	168	 139	 0.00355	 0.02593	 0.041237	 404.0	 404.0	 404.0	 0.0	 0.0	 1	 -30.0	 30.0;
	169	 166	 0.01312	 0.076219	 0.116644	 324.0	 324.0	 324.0	 0.0	 0.0	 1	 -30.0	 30.0;
	168	 151	 0.009341	 0.05225	 0.087701	 305.0	 305.0	 305.0	 0.0	 0.0	 1	 -30.0	 30.0;
	145	 134	 0.006141	 0.032521	 0.052456	 356.0	 356.0	 356.0	 0.0	 0.0	 1	 -30.0	 30.0;
	146	 133	 0.00438	 0.03188	 0.050723	 453.0	 453.0	 453.0	 0.0	 0.0	 1	 -30.0	 30.0;
	163	 146	 0.000479	 0.00331	 0.005711	 404.0	 404.0	 404.0	 0.0	 0.0	 1	 -30.0	 30.0;
	164	 145	 0.000479	 0.00331	 0.005711	 404.0	 404.0	 404.0	 0.0	 0.0	 1	 -30.0	 30.0;
	153	 142	 0.010539	 0.076859	 0.122355	 316.0	 316.0	 316.0	 0.0	 0.0	 1	 -30.0	 30.0;
	158	 147	 0.00469	 0.034651	 0.053821	 383.0	 383.0	 383.0	 0.0	 0.0	 1	 -30.0	 30.0;
	148	 140	 0.006469	 0.0413	 0.069212	 383.0	 383.0	 383.0	 0.0	 0.0	 1	 -30.0	 30.0;
	167	 140	 0.00105	 0.007211	 0.01028	 316.0	 316.0	 316.0	 0.0	 0.0	 1	 -30.0	 30.0;
	167	 158	 0.006099	 0.044831	 0.070954	 316.0	 316.0	 316.0	 0.0	 0.0	 1	 -30.0	 30.0;
	175	 135	 0.002211	 0.01655	 0.024781	 316.0	 316.0	 316.0	 0.0	 0.0	 1	 -30.0	 30.0;
	177	 176	 0.005169	 0.036979	 0.058951	 316.0	 316.0	 316.0	 0.0	 0.0	 1	 -30.0	 30.0;
	180	 172	 0.002401	 0.017789	 0.027588	 381.0	 381.0	 381.0	 0.0	 0.0	 1	 -30.0	 30.0;
	156	 137	 0.00274	 0.02696	 0.70592	 977.0	 977.0	 977.0	 0.0	 0.0	 1	 -30.0	 30.0;
	162	 138	 0.0017	 0.01733	 0.45632	 915.0	 915.0	 915.0	 0.0	 0.0	 1	 -30.0	 30.0;
	160	 161	 0.00136	 0.01574	 0.433664	 1469.0	 1469.0	 1469.0	 0.0	 0.0	 1	 -30.0	 30.0;
	170	 150	 0.00371	 0.04326	 1.18688	 693.0	 693.0	 693.0	 0.0	 0.0	 1	 -30.0	 30.0;
	187	 192	 0.01882	 0.137581	 0.25381	 299.0	 299.0	 299.0	 0.0	 0.0	 1	 -30.0	 30.0;
	196	 202	 0.02756	 0.16014	 0.242871	 269.0	 269.0	 269.0	 0.0	 0.0	 1	 -30.0	 30.0;
	188	 207	 0.01905	 0.11132	 0.167851	 269.0	 269.0	 269.0	 0.0	 0.0	 1	 -30.0	 30.0;
	190	 193	 0.00795	 0.05919	 0.090798	 316.0	 316.0	 316.0	 0.0	 0.0	 1	 -30.0	 30.0;
	192	 181	 0.0018	 0.021141	 0.051498	 633.0	 633.0	 633.0	 0.0	 0.0	 1	 -30.0	 30.0;
	201	 203	 0.00731	 0.055789	 0.083635	 274.0	 274.0	 274.0	 0.0	 0.0	 1	 -30.0	 30.0;
	189	 200	 0.00564	 0.041961	 0.064372	 274.0	 274.0	 274.0	 0.0	 0.0	 1	 -30.0	 30.0;
	207	 182	 0.0057	 0.04236	 0.129712	 366.0	 366.0	 366.0	 0.0	 0.0	 1	 -30.0	 30.0;
	199	 183	 0.00131	 0.01548	 0.41152	 1150.0	 1150.0	 1150.0	 0.0	 0.0	 1	 -30.0	 30.0;
	185	 191	 0.00224	 0.02583	 0.72352	 831.0	 831.0	 831.0	 0.0	 0.0	 1	 -30.0	 30.0;
	194	 186	 0.0021	 0.02475	 0.65792	 1150.0	 1150.0	 1150.0	 0.0	 0.0	 1	 -30.0	 30.0;
	204	 198	 0.0015	 0.01768	 0.46944	 831.0	 831.0	 831.0	 0.0	 0.0	 1	 -30.0	 30.0;
	185	 204	 0.00133	 0.01569	 0.418208	 831.0	 831.0	 831.0	 0.0	 0.0	 1	 -30.0	 30.0;
	186	 205	 0.00133	 0.01569	 0.418208	 831.0	 831.0	 831.0	 0.0	 0.0	 1	 -30.0	 30.0;
	393	 1	 0.00157	 0.06612	 0.0	 160.0	 160.0	 160.0	 1.041	 0.0	 1	 -30.0	 30.0;
...
];

% INFO    : === Translation Options ===
% INFO    : Phase Angle Bound:           30.0 (deg.)
% INFO    : Setting Flat Start
% INFO    : 
% INFO    : === Generator Bounds Update Notes ===
% INFO    : 
% INFO    : === Base KV Replacement Notes ===
% INFO    : 
% INFO    : === Transformer Setting Replacement Notes ===
% INFO    : 
% INFO    : === Line Capacity Monotonicity Notes ===
% INFO    : 
% INFO    : === Voltage Setpoint Replacement Notes ===
% INFO    : Bus 1	: V=1.1010186, theta=36.775787 -> V=1.03, theta=0.0
% INFO    : Bus 2	: V=1.1060162, theta=38.502827 -> V=1.03, theta=0.0
% INFO    : Bus 3	: V=1.0848541, theta=13.549052 -> V=1.03, theta=0.0
% INFO    : Bus 4	: V=1.092332, theta=32.518852 -> V=1.03, theta=0.0
% INFO    : Bus 5	: V=1.092363, theta=32.517423 -> V=1.03, theta=0.0
% INFO    : Bus 6	: V=1.0653306, theta=22.234545 -> V=1.03, theta=0.0
% INFO    : Bus 7	: V=1.0654455, theta=22.247039 -> V=1.03, theta=0.0
% INFO    : Bus 8	: V=1.0256415, theta=25.401189 -> V=1.0, theta=0.0
% INFO    : Bus 9	: V=1.0256531, theta=25.407157 -> V=1.0, theta=0.0
% INFO    : Bus 10	: V=1.0586771, theta=21.759947 -> V=1.03, theta=0.0
...